<?xml version="1.0" encoding="UTF-8"?>

<!-- generated on Wed Jan 29 11:53:15 2020 by Eclipse SUMO duarouter Version 1.2.0
<configuration xmlns:xsi="http://www.w3.org/2001/XMLSchema-instance" xsi:noNamespaceSchemaLocation="http://sumo.dlr.de/xsd/duarouterConfiguration.xsd">

    <input>
        <net-file value="powai.net.xml"/>
        <route-files value="trips.trips.xml"/>
    </input>

    <output>
        <output-file value="powai.rou.xml"/>
        <alternatives-output value="powai.rou.alt.xml"/>
    </output>

    <time>
        <begin value="0"/>
        <end value="50.0"/>
    </time>

    <report>
        <no-warnings value="true"/>
        <ignore-errors value="true"/>
        <no-step-log value="true"/>
    </report>

</configuration>
-->

<routes xmlns:xsi="http://www.w3.org/2001/XMLSchema-instance" xsi:noNamespaceSchemaLocation="http://sumo.dlr.de/xsd/routes_file.xsd">
    <vehicle id="0" depart="0.00">
        <route edges="177566523#1 177566523#2 366913700#0 177566559#2 52514845#0 52514845#1 52514845#2 52514846#0 52514846#1"/>
    </vehicle>
    <vehicle id="1" depart="1.00">
        <route edges="273833832#0 273833832#1 -22843276#0 366913700#0 177566559#2 52514845#0 52514847#0 52514847#1 -52514846#4"/>
    </vehicle>
    <vehicle id="2" depart="2.00">
        <route edges="177566523#1 177566523#2 177566523#3"/>
    </vehicle>
    <vehicle id="3" depart="3.00">
        <route edges="273833832#1 273833832#2 -622415793#0 366913701#2"/>
    </vehicle>
    <vehicle id="5" depart="5.00">
        <route edges="-215261415 -52514846#5 -52514847#1 -52514847#0 52514845#1 52514845#2 52514845#3 -366913700#3 -366913700#2 -366913700#1 -366913700#0 177566523#3 177566523#4"/>
    </vehicle>
    <vehicle id="6" depart="6.00">
        <route edges="273833832#1 -22843276#0 366913700#0 177566559#2 52514845#0 52514845#1 104902792#0 104902792#1 -52514846#3 -52514846#2 -52514846#1"/>
    </vehicle>
    <vehicle id="7" depart="7.00">
        <route edges="-52514847#0 52514845#1 104902792#0 104902792#1 -52514846#3 -439108071"/>
    </vehicle>
    <vehicle id="8" depart="8.00">
        <route edges="273833832#0 273833832#1 273833832#2 -622415793#0 366913701#2"/>
    </vehicle>
    <vehicle id="9" depart="9.00">
        <route edges="-185467797#0 185467797#0 185467797#1"/>
    </vehicle>
    <vehicle id="10" depart="10.00">
        <route edges="-104902793 366913700#2 366913700#3 -52514845#3"/>
    </vehicle>
    <vehicle id="11" depart="11.00">
        <route edges="273833832#0 273833832#1"/>
    </vehicle>
    <vehicle id="12" depart="12.00">
        <route edges="-366913701#2 -366913701#1 52663746"/>
    </vehicle>
    <vehicle id="13" depart="13.00">
        <route edges="-52514846#0 52514845#3 -366913700#3 -366913700#2 -366913700#1 -366913700#0 22843276#0 273833832#2 273833832#3"/>
    </vehicle>
    <vehicle id="16" depart="16.00">
        <route edges="-366913701#1 -366913701#0 -22843276#1 -22843276#0 366913700#0 177566559#2 177566559#3 177566559#4 177566559#5"/>
    </vehicle>
    <vehicle id="17" depart="17.00">
        <route edges="177566523#3 177566523#4"/>
    </vehicle>
    <vehicle id="18" depart="18.00">
        <route edges="52514846#3 52514846#4 52514846#5 52514846#6 -215261251#0"/>
    </vehicle>
    <vehicle id="19" depart="19.00">
        <route edges="-52514845#3 52514845#3 -366913700#3 -366913700#2 -366913700#1 -366913700#0 22843276#0 273833832#2 -622415793#0 366913701#2"/>
    </vehicle>
    <vehicle id="20" depart="20.00">
        <route edges="366913700#1 -366913700#1 177566559#2 177566559#3 177566559#4 177566559#5"/>
    </vehicle>
    <vehicle id="21" depart="21.00">
        <route edges="177566523#0 177566523#1 177566523#2 -622415793#1 -622415793#0 366913701#2"/>
    </vehicle>
    <vehicle id="22" depart="22.00">
        <route edges="-366913701#2 622415793#0 622415793#1 366913700#0 177566559#2 177566559#3 177566559#4"/>
    </vehicle>
    <vehicle id="23" depart="23.00">
        <route edges="-439108071 -104902792#2 -104902792#1 -104902792#0 52514845#2 52514845#3 -366913700#3 -366913700#2 -366913700#1 -366913700#0 177566523#3 177566523#4"/>
    </vehicle>
    <vehicle id="25" depart="25.00">
        <route edges="273833832#1 -22843276#0 366913700#0 177566559#2 52514845#0 52514845#1 52514845#2 52514846#0 52514846#1 52514846#2"/>
    </vehicle>
    <vehicle id="26" depart="26.00">
        <route edges="52514847#0 52514847#1 -52514846#4 -52514846#3 -52514846#2"/>
    </vehicle>
    <vehicle id="27" depart="27.00">
        <route edges="699397460 -366913700#2 -366913700#1 -366913700#0 22843276#0 273833832#2 -622415793#0 366913701#2"/>
    </vehicle>
    <vehicle id="29" depart="29.00">
        <route edges="-366913701#2 622415793#0 622415793#1 366913700#0 177566559#2 52514845#0 52514845#1 104902792#0 104902792#1 -52514846#3 52514846#3"/>
    </vehicle>
    <vehicle id="32" depart="32.00">
        <route edges="-52514846#6 52514846#6 215261251#1"/>
    </vehicle>
    <vehicle id="33" depart="33.00">
        <route edges="273833832#0 273833832#1 -22843276#0 366913700#0 177566559#2 52514845#0 52514845#1 104902792#0 104902792#1 -52514846#3 -439108071"/>
    </vehicle>
    <vehicle id="34" depart="34.00">
        <route edges="215261251#1 -185467797#3 -52514847#0 52514845#1 52514845#2 52514845#3 -366913700#3 -366913700#2 -366913700#1 -366913700#0 177566523#3 177566523#4"/>
    </vehicle>
    <vehicle id="35" depart="35.00">
        <route edges="273833832#0 273833832#1 22843276#1 366913701#0 52663746"/>
    </vehicle>
    <vehicle id="36" depart="36.00">
        <route edges="-366913701#2 -366913701#1 52663746"/>
    </vehicle>
    <vehicle id="37" depart="37.00">
        <route edges="-439272705 -52514846#1 -52514846#0 -52514845#2 -52514845#1 -52514845#0 177566559#3 177566559#4 177566559#5"/>
    </vehicle>
    <vehicle id="38" depart="38.00">
        <route edges="52514845#2 52514845#3 -366913700#3 -366913700#2 -366913700#1 -366913700#0 177566523#3 177566523#4"/>
    </vehicle>
    <vehicle id="39" depart="39.00">
        <route edges="-52514845#1 52514845#1 52514845#2 52514845#3 -366913700#3 -366913700#2 -366913700#1 366913700#1"/>
    </vehicle>
    <vehicle id="40" depart="40.00">
        <route edges="177566523#0 177566523#1 177566523#2 366913700#0 177566559#2 52514845#0 52514845#1 104902792#0 104902792#1 104902792#2 439108071"/>
    </vehicle>
    <vehicle id="41" depart="41.00">
        <route edges="273833832#1 -22843276#0 366913700#0 366913700#1 366913700#2 366913700#3 22843134"/>
    </vehicle>
    <vehicle id="42" depart="42.00">
        <route edges="185467797#0 -52514846#0 52514845#3"/>
    </vehicle>
    <vehicle id="43" depart="43.00">
        <route edges="177566523#1 177566523#2 366913700#0 177566559#2 177566559#3 177566559#4"/>
    </vehicle>
    <vehicle id="44" depart="44.00">
        <route edges="-104902792#1 -104902792#0 52514845#2 52514845#3 -366913700#3 -366913700#2 -366913700#1 -366913700#0 177566523#3"/>
    </vehicle>
    <vehicle id="45" depart="45.00">
        <route edges="-366913701#2 622415793#0 622415793#1 366913700#0 177566559#2 52514845#0 52514845#1 104902792#0 104902792#1 -52514846#3 -52514846#2"/>
    </vehicle>
    <vehicle id="46" depart="46.00">
        <route edges="-439108071 -104902792#2 -104902792#1 -104902792#0 52514845#2 52514845#3 -366913700#3 -366913700#2 -366913700#1 -366913700#0 22843276#0 273833832#2 -622415793#0 366913701#2"/>
    </vehicle>
    <vehicle id="47" depart="47.00">
        <route edges="273833832#1 273833832#2 273833832#3"/>
    </vehicle>
    <vehicle id="48" depart="48.00">
        <route edges="185467797#0 -52514846#0 52514845#3 -366913700#3 -366913700#2 -366913700#1 -366913700#0 22843276#0 273833832#2 -622415793#0 366913701#2"/>
    </vehicle>
</routes>
