<?xml version="1.0" encoding="UTF-8"?>

<!-- generated on Tue Jan 28 17:12:05 2020 by Eclipse SUMO netconvert Version 1.2.0
<configuration xmlns:xsi="http://www.w3.org/2001/XMLSchema-instance" xsi:noNamespaceSchemaLocation="http://sumo.dlr.de/xsd/netconvertConfiguration.xsd">

    <input>
        <osm-files value="powai.osm"/>
    </input>

    <output>
        <output-file value="rw.net.xml"/>
    </output>

    <projection>
        <proj.utm value="true"/>
    </projection>

</configuration>
-->

<net version="1.1" junctionCornerDetail="5" limitTurnSpeed="5.50" xmlns:xsi="http://www.w3.org/2001/XMLSchema-instance" xsi:noNamespaceSchemaLocation="http://sumo.dlr.de/xsd/net_file.xsd">

    <location netOffset="-279383.83,-2115201.54" convBoundary="0.00,0.00,2117.71,1946.61" origBoundary="72.819690,19.118102,72.938283,19.143641" projParameter="+proj=utm +zone=43 +ellps=WGS84 +datum=WGS84 +units=m +no_defs"/>

    <type id="highway.bridleway" priority="1" numLanes="1" speed="2.78" allow="pedestrian" oneway="1" width="2.00"/>
    <type id="highway.bus_guideway" priority="1" numLanes="1" speed="27.78" allow="bus" oneway="1"/>
    <type id="highway.cycleway" priority="1" numLanes="1" speed="8.33" allow="bicycle" oneway="0" width="1.00"/>
    <type id="highway.footway" priority="1" numLanes="1" speed="2.78" allow="pedestrian" oneway="1" width="2.00"/>
    <type id="highway.ford" priority="1" numLanes="1" speed="2.78" allow="army" oneway="0"/>
    <type id="highway.living_street" priority="2" numLanes="1" speed="2.78" disallow="tram rail_urban rail rail_electric ship" oneway="0"/>
    <type id="highway.motorway" priority="14" numLanes="2" speed="39.44" allow="private emergency authority army vip passenger hov taxi bus coach delivery truck trailer motorcycle evehicle custom1 custom2" oneway="1"/>
    <type id="highway.motorway_link" priority="9" numLanes="1" speed="22.22" allow="private emergency authority army vip passenger hov taxi bus coach delivery truck trailer motorcycle evehicle custom1 custom2" oneway="1"/>
    <type id="highway.path" priority="1" numLanes="1" speed="2.78" allow="bicycle pedestrian" oneway="1" width="2.00"/>
    <type id="highway.pedestrian" priority="1" numLanes="1" speed="2.78" allow="pedestrian" oneway="1" width="2.00"/>
    <type id="highway.primary" priority="12" numLanes="2" speed="27.78" disallow="tram rail_urban rail rail_electric ship" oneway="0"/>
    <type id="highway.primary_link" priority="7" numLanes="1" speed="22.22" disallow="tram rail_urban rail rail_electric ship" oneway="0"/>
    <type id="highway.raceway" priority="15" numLanes="2" speed="83.33" allow="vip" oneway="0"/>
    <type id="highway.residential" priority="3" numLanes="1" speed="13.89" disallow="tram rail_urban rail rail_electric ship" oneway="0"/>
    <type id="highway.secondary" priority="11" numLanes="2" speed="27.78" disallow="tram rail_urban rail rail_electric ship" oneway="0"/>
    <type id="highway.secondary_link" priority="6" numLanes="1" speed="22.22" disallow="tram rail_urban rail rail_electric ship" oneway="0"/>
    <type id="highway.service" priority="1" numLanes="1" speed="5.56" allow="delivery bicycle pedestrian" oneway="0"/>
    <type id="highway.stairs" priority="1" numLanes="1" speed="1.39" allow="pedestrian" oneway="1" width="2.00"/>
    <type id="highway.step" priority="1" numLanes="1" speed="1.39" allow="pedestrian" oneway="1" width="2.00"/>
    <type id="highway.steps" priority="1" numLanes="1" speed="1.39" allow="pedestrian" oneway="1" width="2.00"/>
    <type id="highway.tertiary" priority="10" numLanes="1" speed="22.22" disallow="tram rail_urban rail rail_electric ship" oneway="0"/>
    <type id="highway.tertiary_link" priority="5" numLanes="1" speed="22.22" disallow="tram rail_urban rail rail_electric ship" oneway="0"/>
    <type id="highway.track" priority="1" numLanes="1" speed="5.56" disallow="tram rail_urban rail rail_electric ship" oneway="0"/>
    <type id="highway.trunk" priority="13" numLanes="2" speed="27.78" disallow="tram rail_urban rail rail_electric bicycle pedestrian ship" oneway="0"/>
    <type id="highway.trunk_link" priority="8" numLanes="1" speed="22.22" disallow="tram rail_urban rail rail_electric bicycle pedestrian ship" oneway="0"/>
    <type id="highway.unclassified" priority="4" numLanes="1" speed="13.89" disallow="tram rail_urban rail rail_electric ship" oneway="0"/>
    <type id="highway.unsurfaced" priority="1" numLanes="1" speed="8.33" disallow="tram rail_urban rail rail_electric ship" oneway="0"/>
    <type id="railway.light_rail" priority="19" numLanes="1" speed="27.78" allow="rail_urban" oneway="1"/>
    <type id="railway.preserved" priority="16" numLanes="1" speed="27.78" allow="rail" oneway="1"/>
    <type id="railway.rail" priority="20" numLanes="1" speed="83.33" allow="rail rail_electric" oneway="1"/>
    <type id="railway.subway" priority="18" numLanes="1" speed="27.78" allow="rail_urban" oneway="1"/>
    <type id="railway.tram" priority="17" numLanes="1" speed="13.89" allow="tram" oneway="1"/>

    <edge id=":1209663102_0" function="internal">
        <lane id=":1209663102_0_0" index="0" disallow="tram rail_urban rail rail_electric ship" speed="3.65" length="4.67" shape="1589.75,879.34 1588.90,880.51 1588.09,880.87 1587.30,880.44 1586.55,879.21"/>
    </edge>
    <edge id=":1879817481_0" function="internal">
        <lane id=":1879817481_0_0" index="0" disallow="tram rail_urban rail rail_electric ship" speed="13.89" length="0.30" shape="1046.64,629.50 1046.35,629.41"/>
    </edge>
    <edge id=":1879817490_0" function="internal">
        <lane id=":1879817490_0_0" index="0" disallow="tram rail_urban rail rail_electric ship" speed="27.78" length="0.29" shape="1047.32,644.58 1047.00,644.49"/>
        <lane id=":1879817490_0_1" index="1" disallow="tram rail_urban rail rail_electric ship" speed="27.78" length="0.29" shape="1048.14,641.49 1047.87,641.41"/>
        <lane id=":1879817490_0_2" index="2" disallow="tram rail_urban rail rail_electric ship" speed="27.78" length="0.29" shape="1048.97,638.39 1048.73,638.33"/>
    </edge>
    <edge id=":1879817526_0" function="internal">
        <lane id=":1879817526_0_0" index="0" disallow="tram rail_urban rail rail_electric ship" speed="13.89" length="9.50" shape="1418.33,731.35 1409.17,728.86"/>
    </edge>
    <edge id=":1879817526_1" function="internal">
        <lane id=":1879817526_1_0" index="0" disallow="tram rail_urban rail rail_electric ship" speed="5.98" length="8.05" shape="1418.33,731.35 1415.66,730.46 1413.91,729.34 1413.11,727.99 1413.24,726.42"/>
    </edge>
    <edge id=":1879817526_2" function="internal">
        <lane id=":1879817526_2_0" index="0" disallow="tram rail_urban rail rail_electric ship" speed="6.26" length="1.23" shape="1416.26,727.49 1415.57,728.50"/>
    </edge>
    <edge id=":1879817526_3" function="internal">
        <lane id=":1879817526_3_0" index="0" disallow="tram rail_urban rail rail_electric ship" speed="3.65" length="1.31" shape="1416.26,727.49 1415.21,728.27"/>
    </edge>
    <edge id=":1879817526_4" function="internal">
        <lane id=":1879817526_4_0" index="0" disallow="tram rail_urban rail rail_electric ship" speed="6.26" length="6.73" shape="1415.57,728.50 1415.39,728.76 1413.92,729.41 1411.85,729.44 1409.17,728.86"/>
    </edge>
    <edge id=":1879817526_5" function="internal">
        <lane id=":1879817526_5_0" index="0" disallow="tram rail_urban rail rail_electric ship" speed="3.65" length="3.36" shape="1415.21,728.27 1415.10,728.35 1414.21,728.46 1413.59,727.82 1413.24,726.42"/>
    </edge>
    <edge id=":1879817556_0" function="internal">
        <lane id=":1879817556_0_0" index="0" disallow="tram rail_urban rail rail_electric ship" speed="5.87" length="5.98" shape="1460.09,764.99 1459.76,766.14 1460.01,767.38 1460.82,768.71 1462.19,770.12"/>
    </edge>
    <edge id=":1879817556_1" function="internal">
        <lane id=":1879817556_1_0" index="0" disallow="tram rail_urban rail rail_electric ship" speed="13.89" length="15.30" shape="1460.09,764.99 1458.39,768.38 1456.87,771.92 1455.49,775.52 1454.22,779.10"/>
    </edge>
    <edge id=":1879817556_2" function="internal">
        <lane id=":1879817556_2_0" index="0" disallow="tram rail_urban rail rail_electric ship" speed="3.65" length="2.34" shape="1460.09,764.99 1458.81,765.66 1457.92,765.62"/>
    </edge>
    <edge id=":1879817556_11" function="internal">
        <lane id=":1879817556_11_0" index="0" disallow="tram rail_urban rail rail_electric ship" speed="3.65" length="2.34" shape="1457.92,765.62 1457.41,764.88 1457.29,763.45"/>
    </edge>
    <edge id=":1879817556_3" function="internal">
        <lane id=":1879817556_3_0" index="0" disallow="tram rail_urban rail rail_electric ship" speed="5.74" length="6.36" shape="1451.44,763.42 1453.57,764.21 1455.25,764.48 1456.49,764.22 1457.29,763.45"/>
    </edge>
    <edge id=":1879817556_4" function="internal">
        <lane id=":1879817556_4_0" index="0" disallow="tram rail_urban rail rail_electric ship" speed="27.78" length="11.81" shape="1451.44,763.42 1454.89,764.97 1457.19,766.17 1459.31,767.67 1462.19,770.12"/>
        <lane id=":1879817556_4_1" index="1" disallow="tram rail_urban rail rail_electric ship" speed="27.78" length="11.81" shape="1450.13,766.34 1453.32,767.77 1455.46,768.88 1457.42,770.27 1460.09,772.53"/>
        <lane id=":1879817556_4_2" index="2" disallow="tram rail_urban rail rail_electric ship" speed="27.78" length="11.81" shape="1448.82,769.25 1451.75,770.57 1453.72,771.59 1455.53,772.86 1457.98,774.93"/>
    </edge>
    <edge id=":1879817556_7" function="internal">
        <lane id=":1879817556_7_0" index="0" disallow="tram rail_urban rail rail_electric ship" speed="7.80" length="12.55" shape="1448.82,769.25 1452.02,771.16 1453.99,773.43 1454.72,776.08 1454.22,779.10"/>
    </edge>
    <edge id=":1879817556_8" function="internal">
        <lane id=":1879817556_8_0" index="0" disallow="tram rail_urban rail rail_electric ship" speed="13.89" length="15.84" shape="1451.20,778.05 1452.51,774.39 1453.96,770.62 1455.55,766.91 1457.29,763.45"/>
    </edge>
    <edge id=":1879817556_9" function="internal">
        <lane id=":1879817556_9_0" index="0" disallow="tram rail_urban rail rail_electric ship" speed="5.93" length="5.58" shape="1451.20,778.05 1452.53,775.25 1454.10,773.80 1454.44,773.78"/>
    </edge>
    <edge id=":1879817556_10" function="internal">
        <lane id=":1879817556_10_0" index="0" disallow="tram rail_urban rail rail_electric ship" speed="3.65" length="2.34" shape="1451.20,778.05 1452.35,777.18 1453.24,777.06"/>
    </edge>
    <edge id=":1879817556_12" function="internal">
        <lane id=":1879817556_12_0" index="0" disallow="tram rail_urban rail rail_electric ship" speed="5.93" length="3.88" shape="1454.44,773.78 1455.92,773.70 1457.98,774.93"/>
    </edge>
    <edge id=":1879817556_13" function="internal">
        <lane id=":1879817556_13_0" index="0" disallow="tram rail_urban rail rail_electric ship" speed="3.65" length="2.34" shape="1453.24,777.06 1453.86,777.71 1454.22,779.10"/>
    </edge>
    <edge id=":1879817582_0" function="internal">
        <lane id=":1879817582_0_0" index="0" disallow="tram rail_urban rail rail_electric ship" speed="20.84" length="21.46" shape="1468.50,768.79 1469.85,772.52 1471.94,776.68 1475.07,781.44 1479.56,786.98"/>
    </edge>
    <edge id=":1879817582_1" function="internal">
        <lane id=":1879817582_1_0" index="0" disallow="tram rail_urban rail rail_electric ship" speed="13.89" length="23.65" shape="1468.50,768.79 1469.30,773.83 1469.48,780.59 1468.98,787.31 1467.76,792.21"/>
    </edge>
    <edge id=":1879817582_2" function="internal">
        <lane id=":1879817582_2_0" index="0" disallow="tram rail_urban rail rail_electric ship" speed="3.65" length="4.67" shape="1468.50,768.79 1468.09,770.17 1467.44,770.78 1466.56,770.63 1465.44,769.72"/>
    </edge>
    <edge id=":1879817582_3" function="internal">
        <lane id=":1879817582_3_0" index="0" disallow="tram rail_urban rail rail_electric ship" speed="4.32" length="6.03" shape="1462.34,770.25 1464.20,771.67 1465.34,772.06 1465.75,771.41 1465.44,769.72"/>
    </edge>
    <edge id=":1879817582_4" function="internal">
        <lane id=":1879817582_4_0" index="0" disallow="tram rail_urban rail rail_electric ship" speed="27.78" length="23.63" shape="1462.34,770.25 1467.73,774.93 1471.36,778.20 1474.79,781.68 1479.56,786.98"/>
        <lane id=":1879817582_4_1" index="1" disallow="tram rail_urban rail rail_electric ship" speed="27.78" length="23.63" shape="1460.24,772.66 1465.53,777.26 1469.10,780.47 1472.47,783.89 1477.16,789.10"/>
        <lane id=":1879817582_4_2" index="2" disallow="tram rail_urban rail rail_electric ship" speed="27.78" length="23.63" shape="1458.13,775.06 1463.33,779.59 1466.84,782.74 1470.15,786.10 1474.76,791.22"/>
    </edge>
    <edge id=":1879817582_7" function="internal">
        <lane id=":1879817582_7_0" index="0" disallow="tram rail_urban rail rail_electric ship" speed="10.73" length="20.77" shape="1458.13,775.06 1463.44,780.25 1466.81,784.84 1468.25,788.82 1467.76,792.21"/>
    </edge>
    <edge id=":1879817582_8" function="internal">
        <lane id=":1879817582_8_0" index="0" disallow="tram rail_urban rail rail_electric ship" speed="13.89" length="21.36" shape="1464.87,790.84 1466.06,786.30 1466.50,780.38 1466.27,774.40 1465.44,769.72"/>
    </edge>
    <edge id=":1879817582_9" function="internal">
        <lane id=":1879817582_9_0" index="0" disallow="tram rail_urban rail rail_electric ship" speed="6.71" length="12.66" shape="1464.87,790.84 1466.74,788.21 1469.01,787.40 1471.68,788.40 1474.76,791.22"/>
    </edge>
    <edge id=":1879817582_10" function="internal">
        <lane id=":1879817582_10_0" index="0" disallow="tram rail_urban rail rail_electric ship" speed="3.65" length="4.67" shape="1464.87,790.84 1466.10,790.09 1467.00,790.07 1467.55,790.78 1467.76,792.21"/>
    </edge>
    <edge id=":1879817626_0" function="internal">
        <lane id=":1879817626_0_0" index="0" disallow="tram rail_urban rail rail_electric ship" speed="27.78" length="16.16" shape="1549.37,853.78 1538.68,841.66"/>
        <lane id=":1879817626_0_1" index="1" disallow="tram rail_urban rail rail_electric ship" speed="27.78" length="16.16" shape="1551.77,851.66 1541.08,839.54"/>
        <lane id=":1879817626_0_2" index="2" disallow="tram rail_urban rail rail_electric ship" speed="27.78" length="16.16" shape="1554.17,849.55 1543.48,837.43"/>
    </edge>
    <edge id=":1879817626_3" function="internal">
        <lane id=":1879817626_3_0" index="0" disallow="tram rail_urban rail rail_electric ship" speed="20.84" length="16.10" shape="1554.17,849.55 1551.14,845.44 1549.50,841.85 1548.54,838.49 1547.59,835.07"/>
    </edge>
    <edge id=":2081722937_0" function="internal">
        <lane id=":2081722937_0_0" index="0" disallow="tram rail_urban rail rail_electric ship" speed="3.65" length="4.67" shape="318.79,1947.62 317.41,1948.04 316.54,1947.84 316.17,1947.03 316.32,1945.59"/>
    </edge>
    <edge id=":2246662767_0" function="internal">
        <lane id=":2246662767_0_0" index="0" disallow="tram rail_urban rail rail_electric ship" speed="3.65" length="4.67" shape="1430.31,350.81 1430.96,349.52 1431.71,349.03 1432.55,349.33 1433.49,350.43"/>
    </edge>
    <edge id=":2246662768_0" function="internal">
        <lane id=":2246662768_0_0" index="0" disallow="tram rail_urban rail rail_electric ship" speed="3.65" length="4.67" shape="1387.70,352.86 1388.50,351.66 1389.30,351.26 1390.10,351.67 1390.90,352.87"/>
    </edge>
    <edge id=":2246662854_0" function="internal">
        <lane id=":2246662854_0_0" index="0" disallow="tram rail_urban rail rail_electric ship" speed="6.35" length="9.04" shape="1351.44,613.92 1348.94,614.01 1347.13,614.89 1346.00,616.57 1345.56,619.03"/>
    </edge>
    <edge id=":2246662854_1" function="internal">
        <lane id=":2246662854_1_0" index="0" disallow="tram rail_urban rail rail_electric ship" speed="8.25" length="14.30" shape="1351.44,613.92 1347.57,612.98 1344.85,611.10 1343.27,608.28 1342.84,604.52"/>
    </edge>
    <edge id=":2246662854_2" function="internal">
        <lane id=":2246662854_2_0" index="0" disallow="tram rail_urban rail rail_electric ship" speed="3.65" length="4.67" shape="1351.44,613.92 1350.33,612.99 1350.02,612.16 1350.50,611.40 1351.78,610.73"/>
    </edge>
    <edge id=":2246662854_3" function="internal">
        <lane id=":2246662854_3_0" index="0" disallow="tram rail_urban rail rail_electric ship" speed="6.80" length="9.41" shape="1346.04,604.62 1346.33,607.06 1347.38,608.89 1349.20,610.12 1351.78,610.73"/>
    </edge>
    <edge id=":2246662854_4" function="internal">
        <lane id=":2246662854_4_0" index="0" disallow="tram rail_urban rail rail_electric ship" speed="13.89" length="14.42" shape="1346.04,604.62 1345.56,619.03"/>
    </edge>
    <edge id=":2246662854_5" function="internal">
        <lane id=":2246662854_5_0" index="0" disallow="tram rail_urban rail rail_electric ship" speed="3.65" length="2.34" shape="1346.04,604.62 1345.20,605.79 1344.39,606.17"/>
    </edge>
    <edge id=":2246662854_9" function="internal">
        <lane id=":2246662854_9_0" index="0" disallow="tram rail_urban rail rail_electric ship" speed="3.65" length="2.34" shape="1344.39,606.17 1343.60,605.74 1342.84,604.52"/>
    </edge>
    <edge id=":2246662854_6" function="internal">
        <lane id=":2246662854_6_0" index="0" disallow="tram rail_urban rail rail_electric ship" speed="13.89" length="14.42" shape="1342.37,618.93 1342.84,604.52"/>
    </edge>
    <edge id=":2246662854_7" function="internal">
        <lane id=":2246662854_7_0" index="0" disallow="tram rail_urban rail rail_electric ship" speed="7.88" length="5.95" shape="1342.37,618.93 1343.07,614.98 1344.15,613.37"/>
    </edge>
    <edge id=":2246662854_8" function="internal">
        <lane id=":2246662854_8_0" index="0" disallow="tram rail_urban rail rail_electric ship" speed="3.65" length="2.34" shape="1342.37,618.93 1343.20,617.75 1344.02,617.38"/>
    </edge>
    <edge id=":2246662854_10" function="internal">
        <lane id=":2246662854_10_0" index="0" disallow="tram rail_urban rail rail_electric ship" speed="7.88" length="8.53" shape="1344.15,613.37 1344.87,612.30 1347.77,610.88 1351.78,610.73"/>
    </edge>
    <edge id=":2246662854_11" function="internal">
        <lane id=":2246662854_11_0" index="0" disallow="tram rail_urban rail rail_electric ship" speed="3.65" length="2.34" shape="1344.02,617.38 1344.80,617.81 1345.56,619.03"/>
    </edge>
    <edge id=":2246662857_0" function="internal">
        <lane id=":2246662857_0_0" index="0" disallow="tram rail_urban rail rail_electric ship" speed="13.89" length="14.54" shape="1433.10,614.00 1419.57,619.32"/>
    </edge>
    <edge id=":2246662857_1" function="internal">
        <lane id=":2246662857_1_0" index="0" disallow="tram rail_urban rail rail_electric ship" speed="7.68" length="6.04" shape="1433.10,614.00 1428.96,614.97 1427.22,614.59"/>
    </edge>
    <edge id=":2246662857_2" function="internal">
        <lane id=":2246662857_2_0" index="0" disallow="tram rail_urban rail rail_electric ship" speed="3.65" length="2.34" shape="1433.10,614.00 1431.69,613.69 1431.03,613.09"/>
    </edge>
    <edge id=":2246662857_9" function="internal">
        <lane id=":2246662857_9_0" index="0" disallow="tram rail_urban rail rail_electric ship" speed="7.68" length="9.01" shape="1427.22,614.59 1425.77,614.27 1423.52,611.90 1422.23,607.85"/>
    </edge>
    <edge id=":2246662857_10" function="internal">
        <lane id=":2246662857_10_0" index="0" disallow="tram rail_urban rail rail_electric ship" speed="3.65" length="2.34" shape="1431.03,613.09 1431.11,612.20 1431.93,611.02"/>
    </edge>
    <edge id=":2246662857_3" function="internal">
        <lane id=":2246662857_3_0" index="0" disallow="tram rail_urban rail rail_electric ship" speed="6.10" length="9.06" shape="1425.38,607.32 1426.16,609.76 1427.52,611.19 1429.44,611.61 1431.93,611.02"/>
    </edge>
    <edge id=":2246662857_4" function="internal">
        <lane id=":2246662857_4_0" index="0" disallow="tram rail_urban rail rail_electric ship" speed="8.79" length="14.59" shape="1425.38,607.32 1425.59,611.48 1424.70,614.87 1422.69,617.49 1419.57,619.32"/>
    </edge>
    <edge id=":2246662857_5" function="internal">
        <lane id=":2246662857_5_0" index="0" disallow="tram rail_urban rail rail_electric ship" speed="3.65" length="4.67" shape="1425.38,607.32 1424.79,608.63 1424.07,609.16 1423.21,608.90 1422.23,607.85"/>
    </edge>
    <edge id=":2246662857_6" function="internal">
        <lane id=":2246662857_6_0" index="0" disallow="tram rail_urban rail rail_electric ship" speed="7.43" length="10.18" shape="1418.40,616.34 1420.49,615.08 1421.82,613.25 1422.40,610.84 1422.23,607.85"/>
    </edge>
    <edge id=":2246662857_7" function="internal">
        <lane id=":2246662857_7_0" index="0" disallow="tram rail_urban rail rail_electric ship" speed="13.89" length="14.54" shape="1418.40,616.34 1431.93,611.02"/>
    </edge>
    <edge id=":2246662857_8" function="internal">
        <lane id=":2246662857_8_0" index="0" disallow="tram rail_urban rail rail_electric ship" speed="3.65" length="2.34" shape="1418.40,616.34 1419.81,616.65 1420.48,617.25"/>
    </edge>
    <edge id=":2246662857_11" function="internal">
        <lane id=":2246662857_11_0" index="0" disallow="tram rail_urban rail rail_electric ship" speed="3.65" length="2.34" shape="1420.48,617.25 1420.40,618.14 1419.57,619.32"/>
    </edge>
    <edge id=":245673439_0" function="internal">
        <lane id=":245673439_0_0" index="0" disallow="tram rail_urban rail rail_electric ship" speed="27.78" length="0.30" shape="1045.38,652.40 1045.65,652.47"/>
        <lane id=":245673439_0_1" index="1" disallow="tram rail_urban rail rail_electric ship" speed="27.78" length="0.30" shape="1044.55,655.49 1044.83,655.57"/>
        <lane id=":245673439_0_2" index="2" disallow="tram rail_urban rail rail_electric ship" speed="27.78" length="0.30" shape="1043.71,658.58 1044.02,658.66"/>
    </edge>
    <edge id=":245673500_0" function="internal">
        <lane id=":245673500_0_0" index="0" disallow="tram rail_urban rail rail_electric ship" speed="5.44" length="9.50" shape="1465.38,769.53 1464.01,765.83 1462.69,763.81 1461.42,763.47 1460.19,764.82"/>
    </edge>
    <edge id=":245673500_1" function="internal">
        <lane id=":245673500_1_0" index="0" disallow="tram rail_urban rail rail_electric ship" speed="12.77" length="20.11" shape="1465.38,769.53 1463.03,762.87 1460.57,757.86 1457.98,754.49 1455.26,752.76"/>
    </edge>
    <edge id=":245673500_2" function="internal">
        <lane id=":245673500_2_0" index="0" disallow="tram rail_urban rail rail_electric ship" speed="13.89" length="18.99" shape="1465.38,769.53 1464.18,765.29 1463.02,760.25 1462.33,755.20 1462.50,750.89"/>
    </edge>
    <edge id=":245673500_3" function="internal">
        <lane id=":245673500_3_0" index="0" disallow="tram rail_urban rail rail_electric ship" speed="3.65" length="2.64" shape="1465.38,769.53 1465.80,768.15 1466.44,767.53 1466.74,767.58"/>
    </edge>
    <edge id=":245673500_18" function="internal">
        <lane id=":245673500_18_0" index="0" disallow="tram rail_urban rail rail_electric ship" speed="3.65" length="2.03" shape="1466.74,767.58 1467.33,767.68 1468.44,768.59"/>
    </edge>
    <edge id=":245673500_4" function="internal">
        <lane id=":245673500_4_0" index="0" disallow="tram rail_urban rail rail_electric ship" speed="5.02" length="8.78" shape="1474.32,770.51 1471.24,768.01 1469.24,766.86 1468.30,767.06 1468.44,768.59"/>
    </edge>
    <edge id=":245673500_5" function="internal">
        <lane id=":245673500_5_0" index="0" disallow="tram rail_urban rail rail_electric ship" speed="8.04" length="16.70" shape="1474.32,770.51 1469.07,766.33 1464.97,763.98 1462.00,763.48 1460.19,764.82"/>
    </edge>
    <edge id=":245673500_6" function="internal">
        <lane id=":245673500_6_0" index="0" disallow="tram rail_urban rail rail_electric ship" speed="27.78" length="26.52" shape="1474.32,770.51 1468.80,765.23 1465.03,761.43 1460.78,758.47 1453.85,755.67"/>
        <lane id=":245673500_6_1" index="1" disallow="tram rail_urban rail rail_electric ship" speed="27.78" length="26.52" shape="1476.43,768.10 1470.73,762.64 1466.82,758.72 1462.43,755.66 1455.26,752.76"/>
        <lane id=":245673500_6_2" index="2" disallow="tram rail_urban rail rail_electric ship" speed="27.78" length="26.52" shape="1478.54,765.70 1472.65,760.06 1468.62,756.01 1464.09,752.85 1456.68,749.86"/>
    </edge>
    <edge id=":245673500_9" function="internal">
        <lane id=":245673500_9_0" index="0" disallow="tram rail_urban rail rail_electric ship" speed="12.52" length="21.86" shape="1478.54,765.70 1475.69,763.24 1470.17,758.41 1464.82,753.52 1462.50,750.89"/>
    </edge>
    <edge id=":245673500_10" function="internal">
        <lane id=":245673500_10_0" index="0" disallow="tram rail_urban rail rail_electric ship" speed="13.89" length="17.49" shape="1465.65,751.47 1465.46,755.54 1466.12,760.08 1467.25,764.59 1468.44,768.59"/>
    </edge>
    <edge id=":245673500_11" function="internal">
        <lane id=":245673500_11_0" index="0" disallow="tram rail_urban rail rail_electric ship" speed="13.89" length="14.48" shape="1465.65,751.47 1464.72,755.01 1463.45,758.34 1461.92,761.57 1460.19,764.82"/>
    </edge>
    <edge id=":245673500_12" function="internal">
        <lane id=":245673500_12_0" index="0" disallow="tram rail_urban rail rail_electric ship" speed="6.35" length="1.81" shape="1465.65,751.47 1464.99,751.83 1463.93,751.74"/>
    </edge>
    <edge id=":245673500_13" function="internal">
        <lane id=":245673500_13_0" index="0" disallow="tram rail_urban rail rail_electric ship" speed="3.65" length="2.45" shape="1465.65,751.47 1464.64,752.50 1463.78,752.75 1463.69,752.68"/>
    </edge>
    <edge id=":245673500_19" function="internal">
        <lane id=":245673500_19_0" index="0" disallow="tram rail_urban rail rail_electric ship" speed="6.35" length="7.50" shape="1463.93,751.74 1463.28,751.68 1460.51,751.03 1456.68,749.86"/>
    </edge>
    <edge id=":245673500_20" function="internal">
        <lane id=":245673500_20_0" index="0" disallow="tram rail_urban rail rail_electric ship" speed="3.65" length="2.22" shape="1463.69,752.68 1463.07,752.21 1462.50,750.89"/>
    </edge>
    <edge id=":245673500_14" function="internal">
        <lane id=":245673500_14_0" index="0" disallow="tram rail_urban rail rail_electric ship" speed="6.42" length="10.03" shape="1457.39,763.27 1458.30,760.75 1458.01,758.64 1456.53,756.94 1453.85,755.67"/>
    </edge>
    <edge id=":245673500_15" function="internal">
        <lane id=":245673500_15_0" index="0" disallow="tram rail_urban rail rail_electric ship" speed="13.89" length="13.46" shape="1457.39,763.27 1459.06,760.18 1460.48,757.28 1461.62,754.27 1462.50,750.89"/>
    </edge>
    <edge id=":245673500_16" function="internal">
        <lane id=":245673500_16_0" index="0" disallow="tram rail_urban rail rail_electric ship" speed="7.34" length="5.66" shape="1457.39,763.27 1460.35,759.48 1461.19,759.37"/>
    </edge>
    <edge id=":245673500_17" function="internal">
        <lane id=":245673500_17_0" index="0" disallow="tram rail_urban rail rail_electric ship" speed="3.65" length="2.34" shape="1457.39,763.27 1458.67,762.61 1459.56,762.64"/>
    </edge>
    <edge id=":245673500_21" function="internal">
        <lane id=":245673500_21_0" index="0" disallow="tram rail_urban rail rail_electric ship" speed="7.34" length="13.01" shape="1461.19,759.37 1463.18,759.10 1465.88,762.14 1468.44,768.59"/>
    </edge>
    <edge id=":245673500_22" function="internal">
        <lane id=":245673500_22_0" index="0" disallow="tram rail_urban rail rail_electric ship" speed="3.65" length="2.34" shape="1459.56,762.64 1460.07,763.38 1460.19,764.82"/>
    </edge>
    <edge id=":245673642_0" function="internal">
        <lane id=":245673642_0_0" index="0" disallow="tram rail_urban rail rail_electric ship" speed="6.16" length="9.05" shape="1710.36,808.99 1707.82,808.75 1705.96,809.41 1704.76,810.99 1704.24,813.49"/>
    </edge>
    <edge id=":245673642_1" function="internal">
        <lane id=":245673642_1_0" index="0" disallow="tram rail_urban rail rail_electric ship" speed="13.89" length="17.97" shape="1710.36,808.99 1692.90,804.72"/>
    </edge>
    <edge id=":245673642_2" function="internal">
        <lane id=":245673642_2_0" index="0" disallow="tram rail_urban rail rail_electric ship" speed="12.05" length="17.88" shape="1710.36,808.99 1706.93,807.36 1703.33,804.38 1700.15,800.64 1697.97,796.70"/>
    </edge>
    <edge id=":245673642_3" function="internal">
        <lane id=":245673642_3_0" index="0" disallow="tram rail_urban rail rail_electric ship" speed="3.65" length="4.67" shape="1710.36,808.99 1709.38,807.93 1709.18,807.06 1709.76,806.38 1711.12,805.88"/>
    </edge>
    <edge id=":245673642_4" function="internal">
        <lane id=":245673642_4_0" index="0" disallow="tram rail_urban rail rail_electric ship" speed="11.10" length="15.08" shape="1700.95,795.54 1702.85,799.44 1705.18,802.47 1707.94,804.61 1711.12,805.88"/>
    </edge>
    <edge id=":245673642_5" function="internal">
        <lane id=":245673642_5_0" index="0" disallow="tram rail_urban rail rail_electric ship" speed="13.89" length="18.34" shape="1700.95,795.54 1702.27,799.61 1703.39,804.39 1704.12,809.23 1704.24,813.49"/>
    </edge>
    <edge id=":245673642_6" function="internal">
        <lane id=":245673642_6_0" index="0" disallow="tram rail_urban rail rail_electric ship" speed="7.38" length="7.94" shape="1700.95,795.54 1702.25,800.74 1701.55,803.22"/>
    </edge>
    <edge id=":245673642_7" function="internal">