<configuration>
  <input>
      <net-file value="powai.net.xml"/>
      <route-files value="powai.rou.xml"/>
  </input>
  <time>
      <begin value="0"/>
      <end value="2000"/>
  </time>
</configuration>
