<?xml version="1.0" encoding="UTF-8"?>
<!-- generated on 2020-01-29 11:53:15.279394 by $Id$
  options: -n powai.net.xml -r powai.rou.xml -e 50 -l
-->
<routes xmlns:xsi="http://www.w3.org/2001/XMLSchema-instance" xsi:noNamespaceSchemaLocation="http://sumo.dlr.de/xsd/routes_file.xsd">
    <trip id="0" depart="0.00" from="177566523#1" to="52514846#1"/>
    <trip id="1" depart="1.00" from="273833832#0" to="-52514846#4"/>
    <trip id="2" depart="2.00" from="177566523#1" to="177566523#3"/>
    <trip id="3" depart="3.00" from="273833832#1" to="366913701#2"/>
    <trip id="4" depart="4.00" from="177566523#1" to="273833832#1"/>
    <trip id="5" depart="5.00" from="-215261415" to="177566523#4"/>
    <trip id="6" depart="6.00" from="273833832#1" to="-52514846#1"/>
    <trip id="7" depart="7.00" from="-52514847#0" to="-439108071"/>
    <trip id="8" depart="8.00" from="273833832#0" to="366913701#2"/>
    <trip id="9" depart="9.00" from="-185467797#0" to="185467797#1"/>
    <trip id="10" depart="10.00" from="-104902793" to="-52514845#3"/>
    <trip id="11" depart="11.00" from="273833832#0" to="273833832#1"/>
    <trip id="12" depart="12.00" from="-366913701#2" to="52663746"/>
    <trip id="13" depart="13.00" from="-52514846#0" to="273833832#3"/>
    <trip id="14" depart="14.00" from="-366913701#2" to="273833832#1"/>
    <trip id="15" depart="15.00" from="177566523#3" to="-699397460"/>
    <trip id="16" depart="16.00" from="-366913701#1" to="177566559#5"/>
    <trip id="17" depart="17.00" from="177566523#3" to="177566523#4"/>
    <trip id="18" depart="18.00" from="52514846#3" to="-215261251#0"/>
    <trip id="19" depart="19.00" from="-52514845#3" to="366913701#2"/>
    <trip id="20" depart="20.00" from="366913700#1" to="177566559#5"/>
    <trip id="21" depart="21.00" from="177566523#0" to="366913701#2"/>
    <trip id="22" depart="22.00" from="-366913701#2" to="177566559#4"/>
    <trip id="23" depart="23.00" from="-439108071" to="177566523#4"/>
    <trip id="24" depart="24.00" from="-22843134" to="177566523#2"/>
    <trip id="25" depart="25.00" from="273833832#1" to="52514846#2"/>
    <trip id="26" depart="26.00" from="52514847#0" to="-52514846#2"/>
    <trip id="27" depart="27.00" from="699397460" to="366913701#2"/>
    <trip id="28" depart="28.00" from="177566559#4" to="215261415"/>
    <trip id="29" depart="29.00" from="-366913701#2" to="52514846#3"/>
    <trip id="30" depart="30.00" from="-52514845#2" to="273833832#1"/>
    <trip id="31" depart="31.00" from="52514847#1" to="273833832#1"/>
    <trip id="32" depart="32.00" from="-52514846#6" to="215261251#1"/>
    <trip id="33" depart="33.00" from="273833832#0" to="-439108071"/>
    <trip id="34" depart="34.00" from="215261251#1" to="177566523#4"/>
    <trip id="35" depart="35.00" from="273833832#0" to="52663746"/>
    <trip id="36" depart="36.00" from="-366913701#2" to="52663746"/>
    <trip id="37" depart="37.00" from="-439272705" to="177566559#5"/>
    <trip id="38" depart="38.00" from="52514845#2" to="177566523#4"/>
    <trip id="39" depart="39.00" from="-52514845#1" to="366913700#1"/>
    <trip id="40" depart="40.00" from="177566523#0" to="439108071"/>
    <trip id="41" depart="41.00" from="273833832#1" to="22843134"/>
    <trip id="42" depart="42.00" from="185467797#0" to="52514845#3"/>
    <trip id="43" depart="43.00" from="177566523#1" to="177566559#4"/>
    <trip id="44" depart="44.00" from="-104902792#1" to="177566523#3"/>
    <trip id="45" depart="45.00" from="-366913701#2" to="-52514846#2"/>
    <trip id="46" depart="46.00" from="-439108071" to="366913701#2"/>
    <trip id="47" depart="47.00" from="273833832#1" to="273833832#3"/>
    <trip id="48" depart="48.00" from="185467797#0" to="366913701#2"/>
    <trip id="49" depart="49.00" from="366913700#3" to="177566523#1"/>
</routes>
