<?xml version="1.0" encoding="UTF-8"?>

<!-- generated on Wed Jan 29 15:32:22 2020 by Eclipse SUMO duarouter Version 1.2.0
<configuration xmlns:xsi="http://www.w3.org/2001/XMLSchema-instance" xsi:noNamespaceSchemaLocation="http://sumo.dlr.de/xsd/duarouterConfiguration.xsd">

    <input>
        <net-file value="grid_5_5.net.xml"/>
        <route-files value="trips.trips.xml"/>
    </input>

    <output>
        <output-file value="rw_sim.rou.xml"/>
        <alternatives-output value="rw_sim.rou.alt.xml"/>
    </output>

    <time>
        <begin value="0"/>
        <end value="50.0"/>
    </time>

    <report>
        <no-warnings value="true"/>
        <ignore-errors value="true"/>
        <no-step-log value="true"/>
    </report>

</configuration>
-->

<routes xmlns:xsi="http://www.w3.org/2001/XMLSchema-instance" xsi:noNamespaceSchemaLocation="http://sumo.dlr.de/xsd/routes_file.xsd">
    <vehicle id="0" depart="0.00">
        <route edges="8to3 3to2 2to1 1to6 6to11 11to12"/>
    </vehicle>
    <vehicle id="1" depart="1.00">
        <route edges="12to17 17to18 18to19 19to14 14to9 9to8"/>
    </vehicle>
    <vehicle id="2" depart="2.00">
        <route edges="15to10 10to15 15to16 16to17 17to18 18to19 19to24 24to23"/>
    </vehicle>
    <vehicle id="3" depart="3.00">
        <route edges="23to22 22to23 23to18 18to17"/>
    </vehicle>
    <vehicle id="4" depart="4.00">
        <route edges="8to3 3to2 2to1 1to0 0to5 5to10 10to15 15to20"/>
    </vehicle>
    <vehicle id="5" depart="5.00">
        <route edges="24to19 19to18 18to23 23to24"/>
    </vehicle>
    <vehicle id="6" depart="6.00">
        <route edges="8to3 3to8 8to13 13to8"/>
    </vehicle>
    <vehicle id="7" depart="7.00">
        <route edges="6to5 5to10 10to15 15to16 16to17 17to16"/>
    </vehicle>
    <vehicle id="8" depart="8.00">
        <route edges="7to2 2to7 7to6"/>
    </vehicle>
    <vehicle id="9" depart="9.00">
        <route edges="9to8 8to13 13to14"/>
    </vehicle>
    <vehicle id="10" depart="10.00">
        <route edges="4to3 3to8 8to7"/>
    </vehicle>
    <vehicle id="11" depart="11.00">
        <route edges="1to2 2to1 1to0 0to5 5to10 10to15 15to20 20to21"/>
    </vehicle>
    <vehicle id="12" depart="12.00">
        <route edges="16to15 15to16 16to17 17to18 18to13 13to18"/>
    </vehicle>
    <vehicle id="13" depart="13.00">
        <route edges="16to17 17to16"/>
    </vehicle>
    <vehicle id="14" depart="14.00">
        <route edges="3to4 4to9 9to8 8to7 7to6 6to5 5to10"/>
    </vehicle>
    <vehicle id="15" depart="15.00">
        <route edges="18to19 19to14 14to13 13to12 12to17"/>
    </vehicle>
    <vehicle id="16" depart="16.00">
        <route edges="1to6 6to1"/>
    </vehicle>
    <vehicle id="17" depart="17.00">
        <route edges="19to18 18to19 19to24 24to23"/>
    </vehicle>
    <vehicle id="18" depart="18.00">
        <route edges="14to13 13to12 12to7 7to2 2to3"/>
    </vehicle>
    <vehicle id="19" depart="19.00">
        <route edges="7to8 8to7 7to6 6to11 11to16 16to15"/>
    </vehicle>
    <vehicle id="20" depart="20.00">
        <route edges="9to4 4to3 3to8 8to13 13to18 18to17"/>
    </vehicle>
    <vehicle id="21" depart="21.00">
        <route edges="9to8 8to3 3to2 2to1 1to6"/>
    </vehicle>
    <vehicle id="22" depart="22.00">
        <route edges="5to6 6to7 7to8 8to9 9to4"/>
    </vehicle>
    <vehicle id="23" depart="23.00">
        <route edges="12to11 11to6 6to1 1to6"/>
    </vehicle>
    <vehicle id="24" depart="24.00">
        <route edges="22to21 21to22 22to23 23to18 18to17"/>
    </vehicle>
    <vehicle id="25" depart="25.00">
        <route edges="12to7 7to12 12to17 17to22 22to23 23to24"/>
    </vehicle>
    <vehicle id="26" depart="26.00">
        <route edges="10to15 15to10 10to5 5to0"/>
    </vehicle>
    <vehicle id="27" depart="27.00">
        <route edges="10to15 15to10 10to11"/>
    </vehicle>
    <vehicle id="28" depart="28.00">
        <route edges="8to3 3to8 8to13 13to8"/>
    </vehicle>
    <vehicle id="29" depart="29.00">
        <route edges="0to5 5to6 6to11"/>
    </vehicle>
    <vehicle id="30" depart="30.00">
        <route edges="1to6 6to11 11to16 16to21"/>
    </vehicle>
    <vehicle id="31" depart="31.00">
        <route edges="18to23 23to18 18to17 17to16 16to17"/>
    </vehicle>
    <vehicle id="32" depart="32.00">
        <route edges="5to10 10to15 15to16 16to17 17to22"/>
    </vehicle>
    <vehicle id="33" depart="33.00">
        <route edges="17to18 18to13 13to8 8to3"/>
    </vehicle>
    <vehicle id="34" depart="34.00">
        <route edges="20to21 21to22 22to23 23to18"/>
    </vehicle>
    <vehicle id="35" depart="35.00">
        <route edges="11to10 10to11"/>
    </vehicle>
    <vehicle id="36" depart="36.00">
        <route edges="0to1 1to2 2to7 7to12 12to17 17to22 22to21"/>
    </vehicle>
    <vehicle id="37" depart="37.00">
        <route edges="24to23 23to22 22to17 17to12 12to7 7to6"/>
    </vehicle>
    <vehicle id="38" depart="38.00">
        <route edges="23to22 22to17 17to12 12to7 7to2 2to1"/>
    </vehicle>
    <vehicle id="39" depart="39.00">
        <route edges="2to7 7to8 8to9"/>
    </vehicle>
    <vehicle id="40" depart="40.00">
        <route edges="22to17 17to16 16to15 15to16"/>
    </vehicle>
    <vehicle id="41" depart="41.00">
        <route edges="24to23 23to18 18to19"/>
    </vehicle>
    <vehicle id="42" depart="42.00">
        <route edges="13to18 18to23 23to22 22to23"/>
    </vehicle>
    <vehicle id="43" depart="43.00">
        <route edges="14to13 13to8 8to3 3to8"/>
    </vehicle>
    <vehicle id="44" depart="44.00">
        <route edges="3to2 2to1 1to6 6to11 11to16"/>
    </vehicle>
    <vehicle id="45" depart="45.00">
        <route edges="14to19 19to14 14to13 13to12 12to11 11to16"/>
    </vehicle>
    <vehicle id="46" depart="46.00">
        <route edges="6to5 5to10 10to11 11to12 12to13"/>
    </vehicle>
    <vehicle id="47" depart="47.00">
        <route edges="13to18 18to17 17to18"/>
    </vehicle>
    <vehicle id="48" depart="48.00">
        <route edges="7to8 8to7 7to6 6to5 5to10 10to15 15to10"/>
    </vehicle>
    <vehicle id="49" depart="49.00">
        <route edges="15to20 20to21 21to22 22to17 17to12 12to7 7to6"/>
    </vehicle>
</routes>
