<?xml version="1.0" encoding="UTF-8"?>
<!-- generated on 2020-01-29 15:32:22.187642 by $Id$
  options: -n grid_5_5.net.xml -r rw_sim.rou.xml -e 50 -l
-->
<routes xmlns:xsi="http://www.w3.org/2001/XMLSchema-instance" xsi:noNamespaceSchemaLocation="http://sumo.dlr.de/xsd/routes_file.xsd">
    <trip id="0" depart="0.00" from="8to3" to="11to12"/>
    <trip id="1" depart="1.00" from="12to17" to="9to8"/>
    <trip id="2" depart="2.00" from="15to10" to="24to23"/>
    <trip id="3" depart="3.00" from="23to22" to="18to17"/>
    <trip id="4" depart="4.00" from="8to3" to="15to20"/>
    <trip id="5" depart="5.00" from="24to19" to="23to24"/>
    <trip id="6" depart="6.00" from="8to3" to="13to8"/>
    <trip id="7" depart="7.00" from="6to5" to="17to16"/>
    <trip id="8" depart="8.00" from="7to2" to="7to6"/>
    <trip id="9" depart="9.00" from="9to8" to="13to14"/>
    <trip id="10" depart="10.00" from="4to3" to="8to7"/>
    <trip id="11" depart="11.00" from="1to2" to="20to21"/>
    <trip id="12" depart="12.00" from="16to15" to="13to18"/>
    <trip id="13" depart="13.00" from="16to17" to="17to16"/>
    <trip id="14" depart="14.00" from="3to4" to="5to10"/>
    <trip id="15" depart="15.00" from="18to19" to="12to17"/>
    <trip id="16" depart="16.00" from="1to6" to="6to1"/>
    <trip id="17" depart="17.00" from="19to18" to="24to23"/>
    <trip id="18" depart="18.00" from="14to13" to="2to3"/>
    <trip id="19" depart="19.00" from="7to8" to="16to15"/>
    <trip id="20" depart="20.00" from="9to4" to="18to17"/>
    <trip id="21" depart="21.00" from="9to8" to="1to6"/>
    <trip id="22" depart="22.00" from="5to6" to="9to4"/>
    <trip id="23" depart="23.00" from="12to11" to="1to6"/>
    <trip id="24" depart="24.00" from="22to21" to="18to17"/>
    <trip id="25" depart="25.00" from="12to7" to="23to24"/>
    <trip id="26" depart="26.00" from="10to15" to="5to0"/>
    <trip id="27" depart="27.00" from="10to15" to="10to11"/>
    <trip id="28" depart="28.00" from="8to3" to="13to8"/>
    <trip id="29" depart="29.00" from="0to5" to="6to11"/>
    <trip id="30" depart="30.00" from="1to6" to="16to21"/>
    <trip id="31" depart="31.00" from="18to23" to="16to17"/>
    <trip id="32" depart="32.00" from="5to10" to="17to22"/>
    <trip id="33" depart="33.00" from="17to18" to="8to3"/>
    <trip id="34" depart="34.00" from="20to21" to="23to18"/>
    <trip id="35" depart="35.00" from="11to10" to="10to11"/>
    <trip id="36" depart="36.00" from="0to1" to="22to21"/>
    <trip id="37" depart="37.00" from="24to23" to="7to6"/>
    <trip id="38" depart="38.00" from="23to22" to="2to1"/>
    <trip id="39" depart="39.00" from="2to7" to="8to9"/>
    <trip id="40" depart="40.00" from="22to17" to="15to16"/>
    <trip id="41" depart="41.00" from="24to23" to="18to19"/>
    <trip id="42" depart="42.00" from="13to18" to="22to23"/>
    <trip id="43" depart="43.00" from="14to13" to="3to8"/>
    <trip id="44" depart="44.00" from="3to2" to="11to16"/>
    <trip id="45" depart="45.00" from="14to19" to="11to16"/>
    <trip id="46" depart="46.00" from="6to5" to="12to13"/>
    <trip id="47" depart="47.00" from="13to18" to="17to18"/>
    <trip id="48" depart="48.00" from="7to8" to="15to10"/>
    <trip id="49" depart="49.00" from="15to20" to="7to6"/>
</routes>
