<?xml version='1.0' encoding='UTF-8'?>
<edges>
  <edge id="142865483" from="Custom16" to="1563324002" numLanes="1" width="3.5" shape="86.022778,17.075090 3.563289,16.908073 "/>
  <edge id="-142865483" to="Custom16" from="1563324002" numLanes="1" width="3.5" shape="3.563289,16.908073 86.022778,17.075090 "/>
  <edge id="142865484" from="Custom_fix_1" to="1563324004" numLanes="1" width="3.5" shape="3.623636,141.900936 8.150824,139.188223 21.059131,123.647353 31.117382,107.611657 33.763954,85.044097 24.522738,66.614214 16.201273,54.692469 5.082725,44.707131 "/>
  <edge id="-142865484" to="Custom_fix_1" from="1563324004" numLanes="1" width="3.5" shape="5.082725,44.707131 16.201273,54.692469 24.522738,66.614214 33.763954,85.044097 31.117382,107.611657 21.059131,123.647353 8.150824,139.188223 3.623636,141.900936 "/>
  <edge id="142865550" from="Custom17" to="1563324337" numLanes="1" width="3.5" shape="-76.930241,-39.221388 -51.004778,-35.684975 "/>
  <edge id="-142865550" to="Custom17" from="1563324337" numLanes="1" width="3.5" shape="-51.004778,-35.684975 -76.930241,-39.221388 "/>
  <edge id="142865553" from="Custom18" to="1563324357" numLanes="1" width="3.5" shape="-77.352556,71.602810 -53.611703,74.703998 "/>
  <edge id="-142865553" to="Custom18" from="1563324357" numLanes="1" width="3.5" shape="-53.611703,74.703998 -77.352556,71.602810 "/>
  <edge id="99829039_1" from="Custom19" to="1563324324" numLanes="1" width="3.5" shape="1.419547,-176.906225 0.475431,-120.636349 "/>
  <edge id="-99829039_1" to="Custom19" from="1563324324" numLanes="1" width="3.5" shape="0.475431,-120.636349 1.419547,-176.906225 "/>
  <edge id="99829041_1" from="Custom20" to="1154147726" numLanes="1" width="3.5" shape="59.094465,179.111499 1.562500,176.624731 "/>
  <edge id="-99829041_1" to="Custom20" from="1154147726" numLanes="1" width="3.5" shape="1.562500,176.624731 59.094465,179.111499 "/>
  <edge id="99829041_2" from="1154147726" to="Custom21" numLanes="1" width="3.5" shape="-6.432148,176.338133 -106.971900,173.475039 "/>
  <edge id="-99829041_2" to="1154147726" from="Custom21" numLanes="1" width="3.5" shape="-106.971900,173.475039 -6.432148,176.338133 "/>
  <edge id="99829039_3" from="1563324002" to="1563324004" numLanes="1" width="3.5" shape="-0.382855,20.899609 -0.179151,36.030269 "/>
  <edge id="-99829039_3" to="1563324002" from="1563324004" numLanes="1" width="3.5" shape="-0.179151,36.030269 -0.382855,20.899609 "/>
  <edge id="99829039_6" from="1563324346" to="1563324002" numLanes="1" width="3.5" shape="-1.724784,1.440127 -0.768823,12.913784 "/>
  <edge id="-99829039_6" to="1563324346" from="1563324002" numLanes="1" width="3.5" shape="-0.768823,12.913784 -1.724784,1.440127 "/>
  <edge id="142865547_1" from="1563324346" to="1563324344" numLanes="1" width="3.5" shape="-6.056849,-2.567280 -43.033028,-2.763429 "/>
  <edge id="-142865547_1" to="1563324346" from="1563324344" numLanes="1" width="3.5" shape="-43.033028,-2.763429 -6.056849,-2.567280 "/>
  <edge id="99829039_7" from="1563324348" to="Custom_fix_1" numLanes="1" width="3.5" shape="-1.095557,87.737844 -2.225187,138.500628 "/>
  <edge id="-99829039_7" to="1563324348" from="Custom_fix_1" numLanes="1" width="3.5" shape="-2.225187,138.500628 -1.095557,87.737844 "/>
  <edge id="142865548_1" from="1563324348" to="1563324349" numLanes="1" width="3.5" shape="-5.000838,83.952830 -18.636540,84.683371 -34.065740,93.179037 -38.765048,97.723595 "/>
  <edge id="-142865548_1" to="1563324348" from="1563324349" numLanes="1" width="3.5" shape="-38.765048,97.723595 -34.065740,93.179037 -18.636540,84.683371 -5.000838,83.952830 "/>
  <edge id="142865548_2" from="1563324349" to="Custom_fix_1" numLanes="1" width="3.5" shape="-44.540724,106.951404 -48.317014,123.961271 -46.138710,135.730086 -42.846736,142.750171 -37.539770,148.108618 -19.238498,151.477608 -7.806281,153.366758 "/>
  <edge id="-142865548_2" to="1563324349" from="Custom_fix_1" numLanes="1" width="3.5" shape="-7.806281,153.366758 -19.238498,151.477608 -37.539770,148.108618 -42.846736,142.750171 -46.138710,135.730086 -48.317014,123.961271 -44.540724,106.951404 "/>
  <edge id="142865552_1" from="1563324324" to="1563324333" numLanes="1" width="3.5" shape="-3.588372,-116.474419 -16.263603,-115.959084 -20.057156,-114.482130 -30.300243,-108.788365 -39.554833,-102.110025 -47.096820,-95.170193 -53.100092,-85.878332 -52.325916,-73.758894 -43.870756,-60.079474 "/>
  <edge id="-142865552_1" to="1563324324" from="1563324333" numLanes="1" width="3.5" shape="-43.870756,-60.079474 -52.325916,-73.758894 -53.100092,-85.878332 -47.096820,-95.170193 -39.554833,-102.110025 -30.300243,-108.788365 -20.057156,-114.482130 -16.263603,-115.959084 -3.588372,-116.474419 "/>
  <edge id="142865552_2" from="1563324333" to="1563324336" numLanes="1" width="3.5" shape="-35.744453,-53.110356 -35.639176,-53.048017 -24.578032,-44.595943 -17.734844,-42.863667 -7.591118,-41.163270 "/>
  <edge id="-142865552_2" to="1563324333" from="1563324336" numLanes="1" width="3.5" shape="-7.591118,-41.163270 -17.734844,-42.863667 -24.578032,-44.595943 -35.639176,-53.048017 -35.744453,-53.110356 "/>
  <edge id="142865549_1" from="1563324333" to="1563324337" numLanes="1" width="3.5" shape="-43.432917,-49.877917 -46.089921,-39.029522 "/>
  <edge id="-142865549_1" to="1563324333" from="1563324337" numLanes="1" width="3.5" shape="-46.089921,-39.029522 -43.432917,-49.877917 "/>
  <edge id="142865549_2" from="1563324337" to="1563324344" numLanes="1" width="3.5" shape="-47.040429,-31.144354 -47.034023,-6.784648 "/>
  <edge id="-142865549_2" to="1563324337" from="1563324344" numLanes="1" width="3.5" shape="-47.034023,-6.784648 -47.040429,-31.144354 "/>
  <edge id="142865547_2" from="1563324344" to="1563324343" numLanes="1" width="3.5" shape="-50.988037,-2.186769 -56.895448,-1.293758 -62.435267,2.102280 -68.878105,12.939433 -69.244554,25.124420 -63.160695,33.015108 -55.436212,38.708843 -51.946023,39.775330 "/>
  <edge id="-142865547_2" to="1563324344" from="1563324343" numLanes="1" width="3.5" shape="-51.946023,39.775330 -55.436212,38.708843 -63.160695,33.015108 -69.244554,25.124420 -68.878105,12.939433 -62.435267,2.102280 -56.895448,-1.293758 -50.988037,-2.186769 "/>
  <edge id="142865547_3" from="1563324343" to="1563324334" numLanes="1" width="3.5" shape="-44.121926,41.046135 -4.168096,42.064197 "/>
  <edge id="-142865547_3" to="1563324343" from="1563324334" numLanes="1" width="3.5" shape="-4.168096,42.064197 -44.121926,41.046135 "/>
  <edge id="142865551_1" from="1563324343" to="1563324357" numLanes="1" width="3.5" shape="-47.953471,44.940750 -46.963197,68.616796 "/>
  <edge id="-142865551_1" to="1563324343" from="1563324357" numLanes="1" width="3.5" shape="-46.963197,68.616796 -47.953471,44.940750 "/>
  <edge id="142865551_2" from="1563324357" to="1563324349" numLanes="1" width="3.5" shape="-46.361349,79.598703 -45.107961,95.758349 "/>
  <edge id="-142865551_2" to="1563324357" from="1563324349" numLanes="1" width="3.5" shape="-45.107961,95.758349 -46.361349,79.598703 "/>
  <!-- <edge id="99829039_4" from="Custom_fix_1" to="Custom_fix_1" numLanes="1" width="3.5" shape="-3.065001,149.439965 -3.175721,150.077836 "/>
  <edge id="-99829039_4" to="Custom_fix_1" from="Custom_fix_1" numLanes="1" width="3.5" shape="-3.175721,150.077836 -3.065001,149.439965 "/> -->
  <edge id="99829039_8" from="Custom_fix_1" to="1154147726" numLanes="1" width="3.5" shape="-3.606040,158.010849 -2.687530,172.460054 "/>
  <edge id="-99829039_8" to="Custom_fix_1" from="1154147726" numLanes="1" width="3.5" shape="-2.687530,172.460054 -3.606040,158.010849 "/>
  <edge id="99829039_2" from="1563324324" to="1563324336" numLanes="1" width="3.5" shape="0.351135,-112.637321 -0.587358,-47.005288 "/>
  <edge id="-99829039_2" to="1563324324" from="1563324336" numLanes="1" width="3.5" shape="-0.587358,-47.005288 0.351135,-112.637321 "/>
  <edge id="99829039_9" from="1563324336" to="1563324346" numLanes="1" width="3.5" shape="-0.833577,-36.008674 -1.910770,-6.543391 "/>
  <edge id="-99829039_9" to="1563324336" from="1563324346" numLanes="1" width="3.5" shape="-1.910770,-6.543391 -0.833577,-36.008674 "/>
  <edge id="99829039_10" from="1563324334" to="1563324348" numLanes="1" width="3.5" shape="-0.249928,46.165277 -0.926033,79.739645 "/>
  <edge id="-99829039_10" to="1563324334" from="1563324348" numLanes="1" width="3.5" shape="-0.926033,79.739645 -0.249928,46.165277 "/>

</edges>
