<?xml version='1.0' encoding='UTF-8'?>
<nodes>
  <node id="1154147726" x="-2.433769" y="176.451996" shape="0.805420,172.238013 1.713643,173.127996 1.411356,180.121466 -6.531778,179.836715 -6.332518,172.839552 -6.180480,172.682094 0.805420,172.238013 0.805420,172.238013"/>
  <node id="1563324002" x="-0.436702" y="16.899972" shape="2.719092,12.623178 3.570379,13.408081 3.556201,20.408067 3.116828,20.852493 -3.882538,20.946726 -4.256738,13.204390 2.719092,12.623178 2.719092,12.623178"/>
  <node id="1563324004" x="-0.125305" y="40.029907" shape="3.320531,35.983153 7.421337,42.103116 2.744113,47.311146 -3.668649,42.093866 -3.678835,36.077386 3.320531,35.983153 3.320531,35.983153"/>

  <node id="1563324324" x="0.408326" y="-116.636912" shape="-3.024077,-120.695065 3.974937,-120.577633 3.850777,-112.587278 -3.148508,-112.687363 -3.446191,-112.977308 -3.730554,-119.971530 -3.024077,-120.695065 -3.024077,-120.695065"/>
  <node id="1563324333" x="-41.767685" y="-56.676961" shape="-40.893557,-61.919661 -33.961150,-56.121971 -37.527756,-50.098739 -40.033394,-49.045301 -46.832438,-50.710532 -46.847954,-58.239287 -40.893557,-61.919661 -40.893557,-61.919661"/>
  <node id="1563324334" x="-0.169394" y="42.166088" shape="-4.078942,38.565333 -0.080240,38.667224 3.373950,40.102129 3.249363,46.235744 -3.749218,46.094810 -4.257251,45.563061 -4.078942,38.565333 -4.078942,38.565333"/>
  <node id="1563324336" x="-0.687443" y="-40.006003" shape="-4.087000,-47.055330 2.912284,-46.955245 2.812199,-39.955961 2.810220,-39.878135 2.664086,-35.880806 -4.331241,-36.136541 -8.169751,-37.711431 -7.012486,-44.615107 -4.087000,-47.055330 -4.087000,-47.055330"/>
  <node id="1563324337" x="-47.041481" y="-35.144354" shape="-49.489443,-39.862138 -42.690398,-38.196907 -43.540429,-31.145274 -50.540429,-31.143434 -51.477822,-32.217090 -50.531735,-39.152861 -49.489443,-39.862138 -49.489443,-39.862138"/>
  <node id="1563324343" x="-48.120628" y="40.944244" shape="-50.923222,36.428110 -44.032771,37.547271 -44.211080,44.544999 -44.456528,44.794487 -51.450413,45.087013 -52.968822,43.122549 -50.923222,36.428110 -50.923222,36.428110"/>
  <node id="1563324344" x="-47.032972" y="-2.784648" shape="-43.534024,-6.785568 -43.014462,-6.263380 -43.051595,0.736521 -50.464893,1.273913 -51.511182,-5.647451 -50.534024,-6.783728 -43.534024,-6.785568 -43.534024,-6.785568"/>
  <node id="1563324346" x="-2.056905" y="-2.546061" shape="-5.408434,-6.671258 1.586893,-6.415523 1.763131,1.149521 -5.212699,1.730733 -6.075415,0.932671 -6.038282,-6.067230 -5.408434,-6.671258 -5.408434,-6.671258"/>
  <node id="1563324348" x="-1.006567" y="83.738834" shape="-4.425324,79.669178 2.573257,79.810112 2.492724,83.809301 2.403576,87.815711 -4.594691,87.659977 -4.813593,87.447817 -5.188085,80.457842 -4.425324,79.669178 -4.425324,79.669178"/>
  <node id="1563324349" x="-44.317711" y="105.946868" shape="-41.198150,95.207642 -36.331948,100.239548 -41.117629,107.681652 -41.279309,107.684140 -47.807230,106.217525 -47.951251,106.164548 -48.580536,96.247470 -41.198150,95.207642 -41.198150,95.207642"/>
  <!-- <node id="1563324356" x="-3.859801" y="154.018906" shape="-6.624157,149.479265 0.272716,150.676406 -0.113090,157.788808 -7.098990,158.232889 -8.376910,156.819928 -7.235652,149.913589 -6.624157,149.479265 -6.624157,149.479265"/> -->
  <!-- <node id="1563324010" x="-2.38092" y="145.498895" shape="-5.724321,138.422761 1.273947,138.578494 1.824656,138.898658 5.422615,144.903214 0.383436,150.038536 -6.513437,148.841395 -5.724321,138.422761 -5.724321,138.422761"/> -->
  <node id="Custom_fix_1" x="-3.12" y="149.5" shape="-5.724321,138.422761 1.273947,138.578494 1.824656,138.898658 5.422615,144.903214 -0.113090,157.788808 -7.098990,158.232889 -8.376910,156.819928 -7.235652,149.913589 -5.724321,138.422761 -5.724321,138.422761"/>
  <node id="1563324357" x="-46.670671" y="75.610681" shape="-43.466254,68.470533 -42.871829,79.328046 -49.850868,79.869360 -54.065045,78.174513 -53.158361,71.233481 -50.460140,68.763059 -43.466254,68.470533 -43.466254,68.470533"/>
  <node id="Custom16" x="86.022778" y="17.07509"/>
  <node id="Custom17" x="-76.930241" y="-39.221388"/>
  <node id="Custom18" x="-77.352556" y="71.60281"/>
  <node id="Custom19" x="1.419547" y="-176.906225"/>
  <node id="Custom20" x="59.094465" y="179.111499"/>
  <node id="Custom21" x="-106.9719" y="173.475039"/>
</nodes>
