<?xml version="1.0" encoding="UTF-8"?>

<!-- generated on Sat Jan 11 16:13:35 2020 by SUMO netconvert Version 0.30.0
<?xml version="1.0" encoding="UTF-8"?>

<configuration xmlns:xsi="http://www.w3.org/2001/XMLSchema-instance" xsi:noNamespaceSchemaLocation="http://sumo.dlr.de/xsd/netconvertConfiguration.xsd">

    <input>
        <node-files value="CAIR.nod.xml"/>
        <edge-files value="CAIR.edg.xml"/>
    </input>

    <output>
        <output-file value="CAIR.net.xml"/>
    </output>

</configuration>
-->

<net version="0.27" xmlns:xsi="http://www.w3.org/2001/XMLSchema-instance" xsi:noNamespaceSchemaLocation="http://sumo.dlr.de/xsd/net_file.xsd">

    <location netOffset="106.97,176.91" convBoundary="0.00,0.00,192.99,356.02" origBoundary="-106.97,-176.91,86.02,179.11" projParameter="!"/>

    <edge id=":1154147726_0" function="internal">
        <lane id=":1154147726_0_0" index="0" speed="13.90" length="7.97" width="3.50" shape="108.46,355.33 100.49,355.04"/>
    </edge>
    <edge id=":1154147726_1" function="internal">
        <lane id=":1154147726_1_0" index="0" speed="13.90" length="5.17" width="3.50" shape="108.46,355.33 105.98,354.87 104.16,353.75 103.88,353.31"/>
    </edge>
    <edge id=":1154147726_2" function="internal">
        <lane id=":1154147726_2_0" index="0" speed="13.90" length="2.63" width="3.50" shape="108.46,355.33 107.15,354.37 106.74,353.45"/>
    </edge>
    <edge id=":1154147726_9" function="internal">
        <lane id=":1154147726_9_0" index="0" speed="13.90" length="4.15" width="3.50" shape="103.88,353.31 102.99,351.95 102.49,349.48"/>
    </edge>
    <edge id=":1154147726_10" function="internal">
        <lane id=":1154147726_10_0" index="0" speed="13.90" length="2.63" width="3.50" shape="106.74,353.45 107.22,352.57 108.61,351.73"/>
    </edge>
    <edge id=":1154147726_3" function="internal">
        <lane id=":1154147726_3_0" index="0" speed="13.90" length="3.95" width="3.50" shape="106.08,349.25 106.30,350.30 106.79,351.06 107.56,351.54 108.61,351.73"/>
    </edge>
    <edge id=":1154147726_4" function="internal">
        <lane id=":1154147726_4_0" index="0" speed="13.90" length="9.39" width="3.50" shape="106.08,349.25 105.87,351.85 104.87,353.68 103.08,354.75 100.49,355.04"/>
    </edge>
    <edge id=":1154147726_5" function="internal">
        <lane id=":1154147726_5_0" index="0" speed="13.90" length="5.26" width="3.50" shape="106.08,349.25 105.27,350.66 104.40,351.16 103.47,350.77 102.49,349.48"/>
    </edge>
    <edge id=":1154147726_6" function="internal">
        <lane id=":1154147726_6_0" index="0" speed="13.90" length="3.18" width="3.50" shape="100.59,351.45 101.47,351.34 102.08,350.98 102.42,350.36 102.49,349.48"/>
    </edge>
    <edge id=":1154147726_7" function="internal">
        <lane id=":1154147726_7_0" index="0" speed="13.90" length="8.03" width="3.50" shape="100.59,351.45 108.61,351.73"/>
    </edge>
    <edge id=":1154147726_8" function="internal">
        <lane id=":1154147726_8_0" index="0" speed="13.90" length="2.63" width="3.50" shape="100.59,351.45 101.91,352.38 102.34,353.30"/>
    </edge>
    <edge id=":1154147726_11" function="internal">
        <lane id=":1154147726_11_0" index="0" speed="13.90" length="2.63" width="3.50" shape="102.34,353.30 101.86,354.18 100.49,355.04"/>
    </edge>
    <edge id=":1563324002_0" function="internal">
        <lane id=":1563324002_0_0" index="0" speed="13.90" length="7.87" width="3.50" shape="104.79,197.83 104.41,189.97"/>
    </edge>
    <edge id=":1563324002_1" function="internal">
        <lane id=":1563324002_1_0" index="0" speed="13.90" length="4.95" width="3.50" shape="104.79,197.83 105.12,195.28 106.19,193.46 106.42,193.32"/>
    </edge>
    <edge id=":1563324002_2" function="internal">
        <lane id=":1563324002_2_0" index="0" speed="13.90" length="2.63" width="3.50" shape="104.79,197.83 105.67,196.47 106.56,196.01"/>
    </edge>
    <edge id=":1563324002_9" function="internal">
        <lane id=":1563324002_9_0" index="0" speed="13.90" length="4.41" width="3.50" shape="106.42,193.32 107.99,192.37 110.54,192.01"/>
    </edge>
    <edge id=":1563324002_10" function="internal">
        <lane id=":1563324002_10_0" index="0" speed="13.90" length="2.63" width="3.50" shape="106.56,196.01 107.47,196.44 108.39,197.78"/>
    </edge>
    <edge id=":1563324002_3" function="internal">
        <lane id=":1563324002_3_0" index="0" speed="13.90" length="3.49" width="3.50" shape="110.53,195.61 109.58,195.75 108.91,196.15 108.51,196.83 108.39,197.78"/>
    </edge>
    <edge id=":1563324002_4" function="internal">
        <lane id=":1563324002_4_0" index="0" speed="13.90" length="9.33" width="3.50" shape="110.53,195.61 108.03,195.26 106.17,194.20 104.97,192.43 104.41,189.97"/>
    </edge>
    <edge id=":1563324002_5" function="internal">
        <lane id=":1563324002_5_0" index="0" speed="13.90" length="5.26" width="3.50" shape="110.53,195.61 109.18,194.71 108.74,193.81 109.19,192.91 110.54,192.01"/>
    </edge>
    <edge id=":1563324002_6" function="internal">
        <lane id=":1563324002_6_0" index="0" speed="13.90" length="3.87" width="3.50" shape="108.00,189.67 108.23,190.69 108.73,191.43 109.50,191.87 110.54,192.01"/>
    </edge>
    <edge id=":1563324002_7" function="internal">
        <lane id=":1563324002_7_0" index="0" speed="13.90" length="8.12" width="3.50" shape="108.00,189.67 108.39,197.78"/>
    </edge>
    <edge id=":1563324002_8" function="internal">
        <lane id=":1563324002_8_0" index="0" speed="13.90" length="2.75" width="3.50" shape="108.00,189.67 107.21,191.09 106.35,191.61 106.24,191.57"/>
    </edge>
    <edge id=":1563324002_11" function="internal">
        <lane id=":1563324002_11_0" index="0" speed="13.90" length="2.51" width="3.50" shape="106.24,191.57 105.42,191.24 104.41,189.97"/>
    </edge>
    <edge id=":1563324004_0" function="internal">
        <lane id=":1563324004_0_0" index="0" speed="13.90" length="11.89" width="3.50" shape="110.85,222.95 108.31,220.38 106.49,217.85 105.38,215.38 104.99,212.96"/>
    </edge>
    <edge id=":1563324004_1" function="internal">
        <lane id=":1563324004_1_0" index="0" speed="13.90" length="2.78" width="3.50" shape="110.85,222.95 110.45,221.38 110.72,220.41 110.86,220.35"/>
    </edge>
    <edge id=":1563324004_4" function="internal">
        <lane id=":1563324004_4_0" index="0" speed="13.90" length="2.48" width="3.50" shape="110.86,220.35 111.65,220.04 113.26,220.27"/>
    </edge>
    <edge id=":1563324004_2" function="internal">
        <lane id=":1563324004_2_0" index="0" speed="13.90" length="8.93" width="3.50" shape="108.59,212.91 108.90,214.58 109.78,216.36 111.23,218.26 113.26,220.27"/>
    </edge>
    <edge id=":1563324004_3" function="internal">
        <lane id=":1563324004_3_0" index="0" speed="13.90" length="2.38" width="3.50" shape="108.59,212.91 107.71,214.27 107.03,214.62"/>
    </edge>
    <edge id=":1563324004_5" function="internal">
        <lane id=":1563324004_5_0" index="0" speed="13.90" length="2.87" width="3.50" shape="107.03,214.62 106.82,214.74 105.91,214.30 104.99,212.96"/>
    </edge>
    <edge id=":1563324324_0" function="internal">
        <lane id=":1563324324_0_0" index="0" speed="13.90" length="8.00" width="3.50" shape="109.25,56.30 109.12,64.29"/>
    </edge>
    <edge id=":1563324324_1" function="internal">
        <lane id=":1563324324_1_0" index="0" speed="13.90" length="5.17" width="3.50" shape="109.25,56.30 108.85,58.81 107.75,60.63 107.33,60.90"/>
    </edge>
    <edge id=":1563324324_2" function="internal">
        <lane id=":1563324324_2_0" index="0" speed="13.90" length="2.63" width="3.50" shape="109.25,56.30 108.32,57.63 107.42,58.07"/>
    </edge>
    <edge id=":1563324324_9" function="internal">
        <lane id=":1563324324_9_0" index="0" speed="13.90" length="4.16" width="3.50" shape="107.33,60.90 105.95,61.77 103.46,62.23"/>
    </edge>
    <edge id=":1563324324_10" function="internal">
        <lane id=":1563324324_10_0" index="0" speed="13.90" length="2.63" width="3.50" shape="107.42,58.07 106.52,57.60 105.65,56.24"/>
    </edge>
    <edge id=":1563324324_3" function="internal">
        <lane id=":1563324324_3_0" index="0" speed="13.90" length="3.77" width="3.50" shape="103.31,58.63 104.32,58.45 105.04,57.99 105.49,57.25 105.65,56.24"/>
    </edge>
    <edge id=":1563324324_4" function="internal">
        <lane id=":1563324324_4_0" index="0" speed="13.90" length="9.37" width="3.50" shape="103.31,58.63 105.88,58.90 107.71,59.93 108.79,61.73 109.12,64.29"/>
    </edge>
    <edge id=":1563324324_5" function="internal">
        <lane id=":1563324324_5_0" index="0" speed="13.90" length="5.26" width="3.50" shape="103.31,58.63 104.70,59.48 105.18,60.36 104.77,61.28 103.46,62.23"/>
    </edge>
    <edge id=":1563324324_6" function="internal">
        <lane id=":1563324324_6_0" index="0" speed="13.90" length="3.33" width="3.50" shape="105.52,64.24 105.41,63.33 105.02,62.69 104.37,62.32 103.46,62.23"/>
    </edge>
    <edge id=":1563324324_7" function="internal">
        <lane id=":1563324324_7_0" index="0" speed="13.90" length="8.00" width="3.50" shape="105.52,64.24 105.65,56.24"/>
    </edge>
    <edge id=":1563324324_8" function="internal">
        <lane id=":1563324324_8_0" index="0" speed="13.90" length="2.63" width="3.50" shape="105.52,64.24 106.44,62.91 107.35,62.47"/>
    </edge>
    <edge id=":1563324324_11" function="internal">
        <lane id=":1563324324_11_0" index="0" speed="13.90" length="2.63" width="3.50" shape="107.35,62.47 108.24,62.93 109.12,64.29"/>
    </edge>
    <edge id=":1563324333_0" function="internal">
        <lane id=":1563324333_0_0" index="0" speed="13.90" length="6.99" width="3.50" shape="70.24,125.29 68.53,124.36 67.14,124.41 66.06,125.44 65.29,127.46"/>
    </edge>
    <edge id=":1563324333_1" function="internal">
        <lane id=":1563324333_1_0" index="0" speed="13.90" length="11.59" width="3.50" shape="70.24,125.29 67.58,123.43 65.40,121.99 63.48,120.31 61.57,117.77"/>
    </edge>
    <edge id=":1563324333_2" function="internal">
        <lane id=":1563324333_2_0" index="0" speed="13.90" length="2.62" width="3.50" shape="70.24,125.29 69.58,123.82 69.67,122.82"/>
    </edge>
    <edge id=":1563324333_9" function="internal">
        <lane id=":1563324333_9_0" index="0" speed="13.90" length="2.62" width="3.50" shape="69.67,122.82 70.53,122.29 72.14,122.25"/>
    </edge>
    <edge id=":1563324333_3" function="internal">
        <lane id=":1563324333_3_0" index="0" speed="13.90" length="10.03" width="3.50" shape="64.63,115.88 66.30,118.29 67.77,119.69 69.55,120.78 72.14,122.25"/>
    </edge>
    <edge id=":1563324333_4" function="internal">
        <lane id=":1563324333_4_0" index="0" speed="13.90" length="4.49" width="3.50" shape="64.63,115.88 65.61,118.12 65.94,120.14"/>
    </edge>
    <edge id=":1563324333_5" function="internal">
        <lane id=":1563324333_5_0" index="0" speed="13.90" length="2.50" width="3.50" shape="64.63,115.88 64.58,117.50 64.11,118.25"/>
    </edge>
    <edge id=":1563324333_10" function="internal">
        <lane id=":1563324333_10_0" index="0" speed="13.90" length="7.39" width="3.50" shape="65.94,120.14 66.05,120.80 65.94,123.91 65.29,127.46"/>
    </edge>
    <edge id=":1563324333_11" function="internal">
        <lane id=":1563324333_11_0" index="0" speed="13.90" length="2.76" width="3.50" shape="64.11,118.25 64.05,118.36 63.05,118.45 61.57,117.77"/>
    </edge>
    <edge id=":1563324333_6" function="internal">
        <lane id=":1563324333_6_0" index="0" speed="13.90" length="9.03" width="3.50" shape="61.79,126.60 62.33,123.77 62.48,121.36 62.22,119.36 61.57,117.77"/>
    </edge>
    <edge id=":1563324333_7" function="internal">
        <lane id=":1563324333_7_0" index="0" speed="13.90" length="13.91" width="3.50" shape="61.79,126.60 63.28,122.89 65.50,120.93 68.46,120.72 72.14,122.25"/>
    </edge>
    <edge id=":1563324333_8" function="internal">
        <lane id=":1563324333_8_0" index="0" speed="13.90" length="5.26" width="3.50" shape="61.79,126.60 62.99,125.50 63.97,125.28 64.73,125.93 65.29,127.46"/>
    </edge>
    <edge id=":1563324334_0" function="internal">
        <lane id=":1563324334_0_0" index="0" speed="13.90" length="9.35" width="3.50" shape="102.85,217.17 105.37,217.60 107.16,218.73 108.21,220.57 108.52,223.11"/>
    </edge>
    <edge id=":1563324334_1" function="internal">
        <lane id=":1563324334_1_0" index="0" speed="13.90" length="2.97" width="3.50" shape="102.85,217.17 104.18,218.11 104.60,219.02 104.44,219.32"/>
    </edge>
    <edge id=":1563324334_4" function="internal">
        <lane id=":1563324334_4_0" index="0" speed="13.90" length="2.29" width="3.50" shape="104.44,219.32 104.13,219.90 102.76,220.77"/>
    </edge>
    <edge id=":1563324334_2" function="internal">
        <lane id=":1563324334_2_0" index="0" speed="13.90" length="3.57" width="3.50" shape="104.92,223.04 104.80,222.07 104.40,221.36 103.72,220.93 102.76,220.77"/>
    </edge>
    <edge id=":1563324334_3" function="internal">
        <lane id=":1563324334_3_0" index="0" speed="13.90" length="2.39" width="3.50" shape="104.92,223.04 105.85,221.70 106.55,221.37"/>
    </edge>
    <edge id=":1563324334_5" function="internal">
        <lane id=":1563324334_5_0" index="0" speed="13.90" length="2.86" width="3.50" shape="106.55,221.37 106.76,221.27 107.65,221.74 108.52,223.11"/>
    </edge>
    <edge id=":1563324336_0" function="internal">
        <lane id=":1563324336_0_0" index="0" speed="13.90" length="11.04" width="3.50" shape="108.18,129.93 107.94,140.96"/>
    </edge>
    <edge id=":1563324336_1" function="internal">
        <lane id=":1563324336_1_0" index="0" speed="13.90" length="6.38" width="3.50" shape="108.18,129.93 107.57,133.81 106.20,135.84"/>
    </edge>
    <edge id=":1563324336_2" function="internal">
        <lane id=":1563324336_2_0" index="0" speed="13.90" length="2.63" width="3.50" shape="108.18,129.93 107.27,131.26 106.36,131.70"/>
    </edge>
    <edge id=":1563324336_9" function="internal">
        <lane id=":1563324336_9_0" index="0" speed="13.90" length="7.66" width="3.50" shape="106.20,135.84 105.84,136.37 103.02,137.61 99.08,137.52"/>
    </edge>
    <edge id=":1563324336_10" function="internal">
        <lane id=":1563324336_10_0" index="0" speed="13.90" length="2.63" width="3.50" shape="106.36,131.70 105.47,131.24 104.58,129.88"/>
    </edge>
    <edge id=":1563324336_3" function="internal">
        <lane id=":1563324336_3_0" index="0" speed="13.90" length="7.57" width="3.50" shape="99.68,133.97 101.80,134.02 103.32,133.35 104.25,131.97 104.58,129.88"/>
    </edge>
    <edge id=":1563324336_4" function="internal">
        <lane id=":1563324336_4_0" index="0" speed="13.90" length="11.90" width="3.50" shape="99.68,133.97 103.37,134.94 105.97,136.43 107.50,138.43 107.94,140.96"/>
    </edge>
    <edge id=":1563324336_5" function="internal">
        <lane id=":1563324336_5_0" index="0" speed="13.90" length="5.26" width="3.50" shape="99.68,133.97 100.86,135.08 101.16,136.04 100.56,136.85 99.08,137.52"/>
    </edge>
    <edge id=":1563324336_6" function="internal">
        <lane id=":1563324336_6_0" index="0" speed="13.90" length="6.70" width="3.50" shape="104.34,140.83 104.04,139.72 103.07,138.79 101.42,138.06 99.08,137.52"/>
    </edge>
    <edge id=":1563324336_7" function="internal">
        <lane id=":1563324336_7_0" index="0" speed="13.90" length="10.96" width="3.50" shape="104.34,140.83 104.58,129.88"/>
    </edge>
    <edge id=":1563324336_8" function="internal">
        <lane id=":1563324336_8_0" index="0" speed="13.90" length="2.63" width="3.50" shape="104.34,140.83 105.29,139.52 106.20,139.10"/>
    </edge>
    <edge id=":1563324336_11" function="internal">
        <lane id=":1563324336_11_0" index="0" speed="13.90" length="2.63" width="3.50" shape="106.20,139.10 107.09,139.58 107.94,140.96"/>
    </edge>
    <edge id=":1563324337_0" function="internal">
        <lane id=":1563324337_0_0" index="0" speed="13.90" length="4.06" width="3.50" shape="58.13,145.76 57.98,144.68 57.53,143.86 56.78,143.30 55.72,143.00"/>
    </edge>
    <edge id=":1563324337_1" function="internal">
        <lane id=":1563324337_1_0" index="0" speed="13.90" length="8.41" width="3.50" shape="58.13,145.76 58.15,143.27 58.26,141.56 58.56,139.87 59.13,137.45"/>
    </edge>
    <edge id=":1563324337_2" function="internal">
        <lane id=":1563324337_2_0" index="0" speed="13.90" length="2.63" width="3.50" shape="58.13,145.76 59.03,144.41 59.93,143.96"/>
    </edge>
    <edge id=":1563324337_9" function="internal">
        <lane id=":1563324337_9_0" index="0" speed="13.90" length="2.63" width="3.50" shape="59.93,143.96 60.83,144.41 61.73,145.76"/>
    </edge>
    <edge id=":1563324337_3" function="internal">
        <lane id=":1563324337_3_0" index="0" speed="13.90" length="7.54" width="3.50" shape="62.63,138.30 62.11,140.48 61.85,141.99 61.75,143.53 61.73,145.76"/>
    </edge>
    <edge id=":1563324337_4" function="internal">
        <lane id=":1563324337_4_0" index="0" speed="13.90" length="4.95" width="3.50" shape="62.63,138.30 61.70,140.65 60.24,142.21 59.96,142.32"/>
    </edge>
    <edge id=":1563324337_5" function="internal">
        <lane id=":1563324337_5_0" index="0" speed="13.90" length="2.63" width="3.50" shape="62.63,138.30 61.43,139.40 60.45,139.63"/>
    </edge>
    <edge id=":1563324337_10" function="internal">
        <lane id=":1563324337_10_0" index="0" speed="13.90" length="4.37" width="3.50" shape="59.96,142.32 58.24,143.00 55.72,143.00"/>
    </edge>
    <edge id=":1563324337_11" function="internal">
        <lane id=":1563324337_11_0" index="0" speed="13.90" length="2.63" width="3.50" shape="60.45,139.63 59.69,138.97 59.13,137.45"/>
    </edge>
    <edge id=":1563324337_6" function="internal">
        <lane id=":1563324337_6_0" index="0" speed="13.90" length="3.95" width="3.50" shape="56.21,139.44 57.28,139.43 58.12,139.10 58.74,138.44 59.13,137.45"/>
    </edge>
    <edge id=":1563324337_7" function="internal">
        <lane id=":1563324337_7_0" index="0" speed="13.90" length="9.31" width="3.50" shape="56.21,139.44 58.63,140.12 60.35,141.40 61.39,143.28 61.73,145.76"/>
    </edge>
    <edge id=":1563324337_8" function="internal">
        <lane id=":1563324337_8_0" index="0" speed="13.90" length="5.26" width="3.50" shape="56.21,139.44 57.43,140.51 57.75,141.46 57.18,142.30 55.72,143.00"/>
    </edge>
    <edge id=":1563324343_0" function="internal">
        <lane id=":1563324343_0_0" index="0" speed="13.90" length="4.78" width="3.50" shape="57.22,221.92 57.01,220.68 56.48,219.68 55.65,218.92 54.50,218.40"/>
    </edge>
    <edge id=":1563324343_1" function="internal">
        <lane id=":1563324343_1_0" index="0" speed="13.90" length="9.38" width="3.50" shape="57.22,221.92 57.48,219.34 58.52,217.52 60.32,216.46 62.90,216.15"/>
    </edge>
    <edge id=":1563324343_2" function="internal">
        <lane id=":1563324343_2_0" index="0" speed="13.90" length="5.26" width="3.50" shape="57.22,221.92 58.06,220.54 58.94,220.05 59.86,220.46 60.82,221.77"/>
    </edge>
    <edge id=":1563324343_3" function="internal">
        <lane id=":1563324343_3_0" index="0" speed="13.90" length="3.28" width="3.50" shape="62.80,219.75 61.90,219.86 61.27,220.23 60.91,220.87 60.82,221.77"/>
    </edge>
    <edge id=":1563324343_4" function="internal">
        <lane id=":1563324343_4_0" index="0" speed="13.90" length="8.46" width="3.50" shape="62.80,219.75 60.30,219.67 58.58,219.50 56.90,219.12 54.50,218.40"/>
    </edge>
    <edge id=":1563324343_5" function="internal">
        <lane id=":1563324343_5_0" index="0" speed="13.90" length="2.63" width="3.50" shape="62.80,219.75 61.48,218.82 61.05,217.91"/>
    </edge>
    <edge id=":1563324343_9" function="internal">
        <lane id=":1563324343_9_0" index="0" speed="13.90" length="2.63" width="3.50" shape="61.05,217.91 61.52,217.02 62.90,216.15"/>
    </edge>
    <edge id=":1563324343_6" function="internal">
        <lane id=":1563324343_6_0" index="0" speed="13.90" length="7.48" width="3.50" shape="55.55,214.96 57.68,215.59 59.16,215.93 60.68,216.08 62.90,216.15"/>
    </edge>
    <edge id=":1563324343_7" function="internal">
        <lane id=":1563324343_7_0" index="0" speed="13.90" length="5.08" width="3.50" shape="55.55,214.96 57.77,215.96 59.39,217.43 59.60,217.84"/>
    </edge>
    <edge id=":1563324343_8" function="internal">
        <lane id=":1563324343_8_0" index="0" speed="13.90" length="2.63" width="3.50" shape="55.55,214.96 56.58,216.22 56.75,217.21"/>
    </edge>
    <edge id=":1563324343_10" function="internal">
        <lane id=":1563324343_10_0" index="0" speed="13.90" length="4.16" width="3.50" shape="59.60,217.84 60.41,219.37 60.82,221.77"/>
    </edge>
    <edge id=":1563324343_11" function="internal">
        <lane id=":1563324343_11_0" index="0" speed="13.90" length="2.63" width="3.50" shape="56.75,217.21 56.05,217.94 54.50,218.40"/>
    </edge>
    <edge id=":1563324344_0" function="internal">
        <lane id=":1563324344_0_0" index="0" speed="13.90" length="7.71" width="3.50" shape="63.93,175.94 61.64,175.94 60.07,176.00 58.52,176.17 56.25,176.50"/>
    </edge>
    <edge id=":1563324344_1" function="internal">
        <lane id=":1563324344_1_0" index="0" speed="13.90" length="4.99" width="3.50" shape="63.93,175.94 61.40,175.57 59.59,174.47 59.43,174.20"/>
    </edge>
    <edge id=":1563324344_2" function="internal">
        <lane id=":1563324344_2_0" index="0" speed="13.90" length="2.63" width="3.50" shape="63.93,175.94 62.58,175.04 62.14,174.13"/>
    </edge>
    <edge id=":1563324344_9" function="internal">
        <lane id=":1563324344_9_0" index="0" speed="13.90" length="4.36" width="3.50" shape="59.43,174.20 58.50,172.66 58.14,170.12"/>
    </edge>
    <edge id=":1563324344_10" function="internal">
        <lane id=":1563324344_10_0" index="0" speed="13.90" length="2.63" width="3.50" shape="62.14,174.13 62.59,173.24 63.95,172.34"/>
    </edge>
    <edge id=":1563324344_3" function="internal">
        <lane id=":1563324344_3_0" index="0" speed="13.90" length="3.57" width="3.50" shape="61.74,170.12 61.88,171.09 62.29,171.78 62.98,172.20 63.95,172.34"/>
    </edge>
    <edge id=":1563324344_4" function="internal">
        <lane id=":1563324344_4_0" index="0" speed="13.90" length="9.31" width="3.50" shape="61.74,170.12 61.40,172.60 60.37,174.49 58.65,175.79 56.25,176.50"/>
    </edge>
    <edge id=":1563324344_5" function="internal">
        <lane id=":1563324344_5_0" index="0" speed="13.90" length="5.26" width="3.50" shape="61.74,170.12 60.84,171.47 59.94,171.92 59.04,171.47 58.14,170.12"/>
    </edge>
    <edge id=":1563324344_6" function="internal">
        <lane id=":1563324344_6_0" index="0" speed="13.90" length="4.11" width="3.50" shape="55.71,172.94 56.78,172.63 57.53,172.05 57.99,171.22 58.14,170.12"/>
    </edge>
    <edge id=":1563324344_7" function="internal">
        <lane id=":1563324344_7_0" index="0" speed="13.90" length="8.27" width="3.50" shape="55.71,172.94 58.14,172.58 59.81,172.40 61.49,172.34 63.95,172.34"/>
    </edge>
    <edge id=":1563324344_8" function="internal">
        <lane id=":1563324344_8_0" index="0" speed="13.90" length="2.63" width="3.50" shape="55.71,172.94 57.18,173.63 57.76,174.45"/>
    </edge>
    <edge id=":1563324344_11" function="internal">
        <lane id=":1563324344_11_0" index="0" speed="13.90" length="2.63" width="3.50" shape="57.76,174.45 57.45,175.41 56.25,176.50"/>
    </edge>
    <edge id=":1563324346_0" function="internal">
        <lane id=":1563324346_0_0" index="0" speed="13.90" length="3.89" width="3.50" shape="103.45,178.50 103.22,177.47 102.72,176.73 101.95,176.29 100.91,176.14"/>
    </edge>
    <edge id=":1563324346_1" function="internal">
        <lane id=":1563324346_1_0" index="0" speed="13.90" length="8.21" width="3.50" shape="103.45,178.50 103.26,176.07 103.17,174.40 103.18,172.73 103.26,170.30"/>
    </edge>
    <edge id=":1563324346_2" function="internal">
        <lane id=":1563324346_2_0" index="0" speed="13.90" length="2.63" width="3.50" shape="103.45,178.50 104.24,177.08 105.10,176.55"/>
    </edge>
    <edge id=":1563324346_9" function="internal">
        <lane id=":1563324346_9_0" index="0" speed="13.90" length="2.63" width="3.50" shape="105.10,176.55 106.03,176.93 107.04,178.20"/>
    </edge>
    <edge id=":1563324346_3" function="internal">
        <lane id=":1563324346_3_0" index="0" speed="13.90" length="7.78" width="3.50" shape="106.86,170.43 106.78,172.74 106.78,174.32 106.86,175.90 107.04,178.20"/>
    </edge>
    <edge id=":1563324346_4" function="internal">
        <lane id=":1563324346_4_0" index="0" speed="13.90" length="5.04" width="3.50" shape="106.86,170.43 106.41,172.94 105.27,174.73 104.95,174.91"/>
    </edge>
    <edge id=":1563324346_5" function="internal">
        <lane id=":1563324346_5_0" index="0" speed="13.90" length="2.63" width="3.50" shape="106.86,170.43 105.91,171.74 105.00,172.16"/>
    </edge>
    <edge id=":1563324346_10" function="internal">
        <lane id=":1563324346_10_0" index="0" speed="13.90" length="4.31" width="3.50" shape="104.95,174.91 103.43,175.79 100.91,176.14"/>
    </edge>
    <edge id=":1563324346_11" function="internal">
        <lane id=":1563324346_11_0" index="0" speed="13.90" length="2.63" width="3.50" shape="105.00,172.16 104.11,171.68 103.26,170.30"/>
    </edge>
    <edge id=":1563324346_6" function="internal">
        <lane id=":1563324346_6_0" index="0" speed="13.90" length="3.67" width="3.50" shape="100.92,172.54 101.92,172.40 102.64,171.98 103.09,171.28 103.26,170.30"/>
    </edge>
    <edge id=":1563324346_7" function="internal">
        <lane id=":1563324346_7_0" index="0" speed="13.90" length="9.33" width="3.50" shape="100.92,172.54 103.42,172.90 105.28,173.97 106.48,175.73 107.04,178.20"/>
    </edge>
    <edge id=":1563324346_8" function="internal">
        <lane id=":1563324346_8_0" index="0" speed="13.90" length="5.26" width="3.50" shape="100.92,172.54 102.27,173.45 102.72,174.35 102.26,175.25 100.91,176.14"/>
    </edge>
    <edge id=":1563324348_0" function="internal">
        <lane id=":1563324348_0_0" index="0" speed="13.90" length="8.00" width="3.50" shape="107.85,256.68 107.68,264.68"/>
    </edge>
    <edge id=":1563324348_1" function="internal">
        <lane id=":1563324348_1_0" index="0" speed="13.90" length="5.20" width="3.50" shape="107.85,256.68 107.44,259.18 106.34,261.01 105.90,261.30"/>
    </edge>
    <edge id=":1563324348_2" function="internal">
        <lane id=":1563324348_2_0" index="0" speed="13.90" length="2.63" width="3.50" shape="107.85,256.68 106.92,258.01 106.01,258.45"/>
    </edge>
    <edge id=":1563324348_9" function="internal">
        <lane id=":1563324348_9_0" index="0" speed="13.90" length="4.13" width="3.50" shape="105.90,261.30 104.55,262.17 102.07,262.66"/>
    </edge>
    <edge id=":1563324348_10" function="internal">
        <lane id=":1563324348_10_0" index="0" speed="13.90" length="2.63" width="3.50" shape="106.01,258.45 105.12,257.98 104.25,256.61"/>
    </edge>
    <edge id=":1563324348_3" function="internal">
        <lane id=":1563324348_3_0" index="0" speed="13.90" length="3.83" width="3.50" shape="101.87,259.06 102.89,258.86 103.63,258.39 104.08,257.64 104.25,256.61"/>
    </edge>
    <edge id=":1563324348_4" function="internal">
        <lane id=":1563324348_4_0" index="0" speed="13.90" length="9.38" width="3.50" shape="101.87,259.06 104.46,259.29 106.29,260.31 107.36,262.11 107.68,264.68"/>
    </edge>
    <edge id=":1563324348_5" function="internal">
        <lane id=":1563324348_5_0" index="0" speed="13.90" length="5.26" width="3.50" shape="101.87,259.06 103.27,259.89 103.77,260.76 103.37,261.69 102.07,262.66"/>
    </edge>
    <edge id=":1563324348_6" function="internal">
        <lane id=":1563324348_6_0" index="0" speed="13.90" length="3.25" width="3.50" shape="104.08,264.60 103.97,263.71 103.60,263.09 102.96,262.74 102.07,262.66"/>
    </edge>
    <edge id=":1563324348_7" function="internal">
        <lane id=":1563324348_7_0" index="0" speed="13.90" length="8.00" width="3.50" shape="104.08,264.60 104.25,256.61"/>
    </edge>
    <edge id=":1563324348_8" function="internal">
        <lane id=":1563324348_8_0" index="0" speed="13.90" length="2.63" width="3.50" shape="104.08,264.60 105.01,263.27 105.92,262.84"/>
    </edge>
    <edge id=":1563324348_11" function="internal">
        <lane id=":1563324348_11_0" index="0" speed="13.90" length="2.63" width="3.50" shape="105.92,262.84 106.81,263.31 107.68,264.68"/>
    </edge>
    <edge id=":1563324349_0" function="internal">
        <lane id=":1563324349_0_0" index="0" speed="13.90" length="10.11" width="3.50" shape="69.46,275.92 67.29,277.99 65.90,279.57 64.96,281.40 64.19,284.25"/>
    </edge>
    <edge id=":1563324349_1" function="internal">
        <lane id=":1563324349_1_0" index="0" speed="13.90" length="14.83" width="3.50" shape="69.46,275.92 65.68,278.82 62.86,279.29 60.99,277.32 60.08,272.92"/>
    </edge>
    <edge id=":1563324349_2" function="internal">
        <lane id=":1563324349_2_0" index="0" speed="13.90" length="5.26" width="3.50" shape="69.46,275.92 67.86,276.22 66.91,275.88 66.61,274.92 66.96,273.34"/>
    </edge>
    <edge id=":1563324349_3" function="internal">
        <lane id=":1563324349_3_0" index="0" speed="13.90" length="5.16" width="3.50" shape="63.65,272.41 63.97,273.91 64.62,274.56 65.62,274.37 66.96,273.34"/>
    </edge>
    <edge id=":1563324349_4" function="internal">
        <lane id=":1563324349_4_0" index="0" speed="13.90" length="11.92" width="3.50" shape="63.65,272.41 64.05,275.68 64.47,278.37 64.62,281.04 64.19,284.25"/>
    </edge>
    <edge id=":1563324349_5" function="internal">
        <lane id=":1563324349_5_0" index="0" speed="13.90" length="2.63" width="3.50" shape="63.65,272.41 62.95,273.88 62.12,274.45"/>
    </edge>
    <edge id=":1563324349_9" function="internal">