<?xml version="1.0" encoding="UTF-8"?>

<!-- generated on Wed Aug 28 00:48:16 2019 by Eclipse SUMO netconvert Version 1.2.0
<configuration xmlns:xsi="http://www.w3.org/2001/XMLSchema-instance" xsi:noNamespaceSchemaLocation="http://sumo.dlr.de/xsd/netconvertConfiguration.xsd">

    <input>
        <node-files value="grid_5_5.nod.xml"/>
        <edge-files value="grid_5_5.edg.xml"/>
    </input>

    <output>
        <output-file value="grid_5_5.net.xml"/>
    </output>

</configuration>
-->

<net version="1.1" junctionCornerDetail="5" limitTurnSpeed="5.50" xmlns:xsi="http://www.w3.org/2001/XMLSchema-instance" xsi:noNamespaceSchemaLocation="http://sumo.dlr.de/xsd/net_file.xsd">

    <location netOffset="0.00,0.00" convBoundary="0.00,0.00,400.00,400.00" origBoundary="0.00,0.00,400.00,400.00" projParameter="!"/>

    <edge id=":0_0" function="internal">
        <lane id=":0_0_0" index="0" speed="8.96" length="18.06" shape="-4.80,6.40 -4.10,1.50 -2.00,-2.00 1.50,-4.10 6.40,-4.80"/>
    </edge>
    <edge id=":0_1" function="internal">
        <lane id=":0_1_0" index="0" speed="7.66" length="12.90" shape="-1.60,6.40 -1.10,2.90 0.40,0.40 2.90,-1.10 6.40,-1.60"/>
    </edge>
    <edge id=":0_2" function="internal">
        <lane id=":0_2_0" index="0" speed="3.90" length="2.58" shape="6.40,4.80 5.70,4.90 5.20,5.20 4.90,5.70 4.80,6.40"/>
    </edge>
    <edge id=":0_3" function="internal">
        <lane id=":0_3_0" index="0" speed="6.08" length="7.74" shape="6.40,1.60 4.30,1.90 2.80,2.80 1.90,4.30 1.60,6.40"/>
    </edge>
    <edge id=":1_0" function="internal">
        <lane id=":1_0_0" index="0" speed="6.51" length="9.03" shape="95.20,10.40 94.85,7.95 93.80,6.20 92.05,5.15 89.60,4.80"/>
    </edge>
    <edge id=":1_1" function="internal">
        <lane id=":1_1_0" index="0" speed="9.26" length="19.35" shape="98.40,10.40 99.15,5.15 101.40,1.40 105.15,-0.85 110.40,-1.60"/>
    </edge>
    <edge id=":1_2" function="internal">
        <lane id=":1_2_0" index="0" speed="3.65" length="4.67" shape="98.40,10.40 99.20,9.20 100.00,8.80 100.80,9.20 101.60,10.40"/>
    </edge>
    <edge id=":1_3" function="internal">
        <lane id=":1_3_0" index="0" speed="6.51" length="9.03" shape="110.40,4.80 107.95,5.15 106.20,6.20 105.15,7.95 104.80,10.40"/>
    </edge>
    <edge id=":1_4" function="internal">
        <lane id=":1_4_0" index="0" speed="13.89" length="20.80" shape="110.40,4.80 89.60,4.80"/>
        <lane id=":1_4_1" index="1" speed="13.89" length="20.80" shape="110.40,1.60 89.60,1.60"/>
    </edge>
    <edge id=":1_6" function="internal">
        <lane id=":1_6_0" index="0" speed="3.65" length="2.34" shape="110.40,1.60 109.20,0.80 108.80,0.00"/>
    </edge>
    <edge id=":1_11" function="internal">
        <lane id=":1_11_0" index="0" speed="3.65" length="2.34" shape="108.80,0.00 109.20,-0.80 110.40,-1.60"/>
    </edge>
    <edge id=":1_7" function="internal">
        <lane id=":1_7_0" index="0" speed="13.89" length="20.80" shape="89.60,-4.80 110.40,-4.80"/>
        <lane id=":1_7_1" index="1" speed="13.89" length="20.80" shape="89.60,-1.60 110.40,-1.60"/>
    </edge>
    <edge id=":1_9" function="internal">
        <lane id=":1_9_0" index="0" speed="9.26" length="6.96" shape="89.60,-1.60 94.85,-0.85 96.27,0.00"/>
    </edge>
    <edge id=":1_10" function="internal">
        <lane id=":1_10_0" index="0" speed="3.65" length="2.34" shape="89.60,-1.60 90.80,-0.80 91.20,0.00"/>
    </edge>
    <edge id=":1_12" function="internal">
        <lane id=":1_12_0" index="0" speed="9.26" length="12.40" shape="96.27,0.00 98.60,1.40 100.85,5.15 101.60,10.40"/>
    </edge>
    <edge id=":1_13" function="internal">
        <lane id=":1_13_0" index="0" speed="3.65" length="2.34" shape="91.20,0.00 90.80,0.80 89.60,1.60"/>
    </edge>
    <edge id=":10_0" function="internal">
        <lane id=":10_0_0" index="0" speed="13.89" length="20.80" shape="-4.80,210.40 -4.80,189.60"/>
        <lane id=":10_0_1" index="1" speed="13.89" length="20.80" shape="-1.60,210.40 -1.60,189.60"/>
    </edge>
    <edge id=":10_2" function="internal">
        <lane id=":10_2_0" index="0" speed="9.26" length="6.96" shape="-1.60,210.40 -0.85,205.15 -0.00,203.73"/>
    </edge>
    <edge id=":10_3" function="internal">
        <lane id=":10_3_0" index="0" speed="3.65" length="2.34" shape="-1.60,210.40 -0.80,209.20 0.00,208.80"/>
    </edge>
    <edge id=":10_11" function="internal">
        <lane id=":10_11_0" index="0" speed="9.26" length="12.40" shape="-0.00,203.73 1.40,201.40 5.15,199.15 10.40,198.40"/>
    </edge>
    <edge id=":10_12" function="internal">
        <lane id=":10_12_0" index="0" speed="3.65" length="2.34" shape="0.00,208.80 0.80,209.20 1.60,210.40"/>
    </edge>
    <edge id=":10_4" function="internal">
        <lane id=":10_4_0" index="0" speed="6.51" length="9.03" shape="10.40,204.80 7.95,205.15 6.20,206.20 5.15,207.95 4.80,210.40"/>
    </edge>
    <edge id=":10_5" function="internal">
        <lane id=":10_5_0" index="0" speed="9.26" length="19.35" shape="10.40,201.60 5.15,200.85 1.40,198.60 -0.85,194.85 -1.60,189.60"/>
    </edge>
    <edge id=":10_6" function="internal">
        <lane id=":10_6_0" index="0" speed="3.65" length="4.67" shape="10.40,201.60 9.20,200.80 8.80,200.00 9.20,199.20 10.40,198.40"/>
    </edge>
    <edge id=":10_7" function="internal">
        <lane id=":10_7_0" index="0" speed="6.51" length="9.03" shape="4.80,189.60 5.15,192.05 6.20,193.80 7.95,194.85 10.40,195.20"/>
    </edge>
    <edge id=":10_8" function="internal">
        <lane id=":10_8_0" index="0" speed="13.89" length="20.80" shape="4.80,189.60 4.80,210.40"/>
        <lane id=":10_8_1" index="1" speed="13.89" length="20.80" shape="1.60,189.60 1.60,210.40"/>
    </edge>
    <edge id=":10_10" function="internal">
        <lane id=":10_10_0" index="0" speed="3.65" length="2.34" shape="1.60,189.60 0.80,190.80 0.00,191.20"/>
    </edge>
    <edge id=":10_13" function="internal">
        <lane id=":10_13_0" index="0" speed="3.65" length="2.34" shape="0.00,191.20 -0.80,190.80 -1.60,189.60"/>
    </edge>
    <edge id=":11_0" function="internal">
        <lane id=":11_0_0" index="0" speed="6.51" length="9.03" shape="95.20,210.40 94.85,207.95 93.80,206.20 92.05,205.15 89.60,204.80"/>
    </edge>
    <edge id=":11_1" function="internal">
        <lane id=":11_1_0" index="0" speed="13.89" length="20.80" shape="95.20,210.40 95.20,189.60"/>
        <lane id=":11_1_1" index="1" speed="13.89" length="20.80" shape="98.40,210.40 98.40,189.60"/>
    </edge>
    <edge id=":11_3" function="internal">
        <lane id=":11_3_0" index="0" speed="9.26" length="6.96" shape="98.40,210.40 99.15,205.15 100.00,203.73"/>
    </edge>
    <edge id=":11_4" function="internal">
        <lane id=":11_4_0" index="0" speed="3.65" length="2.34" shape="98.40,210.40 99.20,209.20 100.00,208.80"/>
    </edge>
    <edge id=":11_20" function="internal">
        <lane id=":11_20_0" index="0" speed="9.26" length="12.40" shape="100.00,203.73 101.40,201.40 105.15,199.15 110.40,198.40"/>
    </edge>
    <edge id=":11_21" function="internal">
        <lane id=":11_21_0" index="0" speed="3.65" length="2.34" shape="100.00,208.80 100.80,209.20 101.60,210.40"/>
    </edge>
    <edge id=":11_5" function="internal">
        <lane id=":11_5_0" index="0" speed="6.51" length="9.03" shape="110.40,204.80 107.95,205.15 106.20,206.20 105.15,207.95 104.80,210.40"/>
    </edge>
    <edge id=":11_6" function="internal">
        <lane id=":11_6_0" index="0" speed="13.89" length="20.80" shape="110.40,204.80 89.60,204.80"/>
        <lane id=":11_6_1" index="1" speed="13.89" length="20.80" shape="110.40,201.60 89.60,201.60"/>
    </edge>
    <edge id=":11_8" function="internal">
        <lane id=":11_8_0" index="0" speed="9.26" length="19.35" shape="110.40,201.60 105.15,200.85 101.40,198.60 99.15,194.85 98.40,189.60"/>
    </edge>
    <edge id=":11_9" function="internal">
        <lane id=":11_9_0" index="0" speed="3.65" length="4.67" shape="110.40,201.60 109.20,200.80 108.80,200.00 109.20,199.20 110.40,198.40"/>
    </edge>
    <edge id=":11_10" function="internal">
        <lane id=":11_10_0" index="0" speed="6.51" length="9.03" shape="104.80,189.60 105.15,192.05 106.20,193.80 107.95,194.85 110.40,195.20"/>
    </edge>
    <edge id=":11_11" function="internal">
        <lane id=":11_11_0" index="0" speed="13.89" length="20.80" shape="104.80,189.60 104.80,210.40"/>
        <lane id=":11_11_1" index="1" speed="13.89" length="20.80" shape="101.60,189.60 101.60,210.40"/>
    </edge>
    <edge id=":11_13" function="internal">
        <lane id=":11_13_0" index="0" speed="9.26" length="6.96" shape="101.60,189.60 100.85,194.85 100.00,196.27"/>
    </edge>
    <edge id=":11_14" function="internal">
        <lane id=":11_14_0" index="0" speed="3.65" length="2.34" shape="101.60,189.60 100.80,190.80 100.00,191.20"/>
    </edge>
    <edge id=":11_22" function="internal">
        <lane id=":11_22_0" index="0" speed="9.26" length="12.40" shape="100.00,196.27 98.60,198.60 94.85,200.85 89.60,201.60"/>
    </edge>
    <edge id=":11_23" function="internal">
        <lane id=":11_23_0" index="0" speed="3.65" length="2.34" shape="100.00,191.20 99.20,190.80 98.40,189.60"/>
    </edge>
    <edge id=":11_15" function="internal">
        <lane id=":11_15_0" index="0" speed="6.51" length="9.03" shape="89.60,195.20 92.05,194.85 93.80,193.80 94.85,192.05 95.20,189.60"/>
    </edge>
    <edge id=":11_16" function="internal">
        <lane id=":11_16_0" index="0" speed="13.89" length="20.80" shape="89.60,195.20 110.40,195.20"/>
        <lane id=":11_16_1" index="1" speed="13.89" length="20.80" shape="89.60,198.40 110.40,198.40"/>
    </edge>
    <edge id=":11_18" function="internal">
        <lane id=":11_18_0" index="0" speed="9.26" length="19.35" shape="89.60,198.40 94.85,199.15 98.60,201.40 100.85,205.15 101.60,210.40"/>
    </edge>
    <edge id=":11_19" function="internal">
        <lane id=":11_19_0" index="0" speed="3.65" length="4.67" shape="89.60,198.40 90.80,199.20 91.20,200.00 90.80,200.80 89.60,201.60"/>
    </edge>
    <edge id=":12_0" function="internal">
        <lane id=":12_0_0" index="0" speed="6.51" length="9.03" shape="195.20,210.40 194.85,207.95 193.80,206.20 192.05,205.15 189.60,204.80"/>
    </edge>
    <edge id=":12_1" function="internal">
        <lane id=":12_1_0" index="0" speed="13.89" length="20.80" shape="195.20,210.40 195.20,189.60"/>
        <lane id=":12_1_1" index="1" speed="13.89" length="20.80" shape="198.40,210.40 198.40,189.60"/>
    </edge>
    <edge id=":12_3" function="internal">
        <lane id=":12_3_0" index="0" speed="9.26" length="6.96" shape="198.40,210.40 199.15,205.15 200.00,203.73"/>
    </edge>
    <edge id=":12_4" function="internal">
        <lane id=":12_4_0" index="0" speed="3.65" length="2.34" shape="198.40,210.40 199.20,209.20 200.00,208.80"/>
    </edge>
    <edge id=":12_20" function="internal">
        <lane id=":12_20_0" index="0" speed="9.26" length="12.40" shape="200.00,203.73 201.40,201.40 205.15,199.15 210.40,198.40"/>
    </edge>
    <edge id=":12_21" function="internal">
        <lane id=":12_21_0" index="0" speed="3.65" length="2.34" shape="200.00,208.80 200.80,209.20 201.60,210.40"/>
    </edge>
    <edge id=":12_5" function="internal">
        <lane id=":12_5_0" index="0" speed="6.51" length="9.03" shape="210.40,204.80 207.95,205.15 206.20,206.20 205.15,207.95 204.80,210.40"/>
    </edge>
    <edge id=":12_6" function="internal">
        <lane id=":12_6_0" index="0" speed="13.89" length="20.80" shape="210.40,204.80 189.60,204.80"/>
        <lane id=":12_6_1" index="1" speed="13.89" length="20.80" shape="210.40,201.60 189.60,201.60"/>
    </edge>
    <edge id=":12_8" function="internal">
        <lane id=":12_8_0" index="0" speed="9.26" length="19.35" shape="210.40,201.60 205.15,200.85 201.40,198.60 199.15,194.85 198.40,189.60"/>
    </edge>
    <edge id=":12_9" function="internal">
        <lane id=":12_9_0" index="0" speed="3.65" length="4.67" shape="210.40,201.60 209.20,200.80 208.80,200.00 209.20,199.20 210.40,198.40"/>
    </edge>
    <edge id=":12_10" function="internal">
        <lane id=":12_10_0" index="0" speed="6.51" length="9.03" shape="204.80,189.60 205.15,192.05 206.20,193.80 207.95,194.85 210.40,195.20"/>
    </edge>
    <edge id=":12_11" function="internal">
        <lane id=":12_11_0" index="0" speed="13.89" length="20.80" shape="204.80,189.60 204.80,210.40"/>
        <lane id=":12_11_1" index="1" speed="13.89" length="20.80" shape="201.60,189.60 201.60,210.40"/>
    </edge>
    <edge id=":12_13" function="internal">
        <lane id=":12_13_0" index="0" speed="9.26" length="6.96" shape="201.60,189.60 200.85,194.85 200.00,196.27"/>
    </edge>
    <edge id=":12_14" function="internal">
        <lane id=":12_14_0" index="0" speed="3.65" length="2.34" shape="201.60,189.60 200.80,190.80 200.00,191.20"/>
    </edge>
    <edge id=":12_22" function="internal">
        <lane id=":12_22_0" index="0" speed="9.26" length="12.40" shape="200.00,196.27 198.60,198.60 194.85,200.85 189.60,201.60"/>
    </edge>
    <edge id=":12_23" function="internal">
        <lane id=":12_23_0" index="0" speed="3.65" length="2.34" shape="200.00,191.20 199.20,190.80 198.40,189.60"/>
    </edge>
    <edge id=":12_15" function="internal">
        <lane id=":12_15_0" index="0" speed="6.51" length="9.03" shape="189.60,195.20 192.05,194.85 193.80,193.80 194.85,192.05 195.20,189.60"/>
    </edge>
    <edge id=":12_16" function="internal">
        <lane id=":12_16_0" index="0" speed="13.89" length="20.80" shape="189.60,195.20 210.40,195.20"/>
        <lane id=":12_16_1" index="1" speed="13.89" length="20.80" shape="189.60,198.40 210.40,198.40"/>
    </edge>
    <edge id=":12_18" function="internal">
        <lane id=":12_18_0" index="0" speed="9.26" length="19.35" shape="189.60,198.40 194.85,199.15 198.60,201.40 200.85,205.15 201.60,210.40"/>
    </edge>
    <edge id=":12_19" function="internal">
        <lane id=":12_19_0" index="0" speed="3.65" length="4.67" shape="189.60,198.40 190.80,199.20 191.20,200.00 190.80,200.80 189.60,201.60"/>
    </edge>
    <edge id=":13_0" function="internal">
        <lane id=":13_0_0" index="0" speed="6.51" length="9.03" shape="295.20,210.40 294.85,207.95 293.80,206.20 292.05,205.15 289.60,204.80"/>
    </edge>
    <edge id=":13_1" function="internal">
        <lane id=":13_1_0" index="0" speed="13.89" length="20.80" shape="295.20,210.40 295.20,189.60"/>
        <lane id=":13_1_1" index="1" speed="13.89" length="20.80" shape="298.40,210.40 298.40,189.60"/>
    </edge>
    <edge id=":13_3" function="internal">
        <lane id=":13_3_0" index="0" speed="9.26" length="6.96" shape="298.40,210.40 299.15,205.15 300.00,203.73"/>
    </edge>
    <edge id=":13_4" function="internal">
        <lane id=":13_4_0" index="0" speed="3.65" length="2.34" shape="298.40,210.40 299.20,209.20 300.00,208.80"/>
    </edge>
    <edge id=":13_20" function="internal">
        <lane id=":13_20_0" index="0" speed="9.26" length="12.40" shape="300.00,203.73 301.40,201.40 305.15,199.15 310.40,198.40"/>
    </edge>
    <edge id=":13_21" function="internal">
        <lane id=":13_21_0" index="0" speed="3.65" length="2.34" shape="300.00,208.80 300.80,209.20 301.60,210.40"/>
    </edge>
    <edge id=":13_5" function="internal">
        <lane id=":13_5_0" index="0" speed="6.51" length="9.03" shape="310.40,204.80 307.95,205.15 306.20,206.20 305.15,207.95 304.80,210.40"/>
    </edge>
    <edge id=":13_6" function="internal">
        <lane id=":13_6_0" index="0" speed="13.89" length="20.80" shape="310.40,204.80 289.60,204.80"/>
        <lane id=":13_6_1" index="1" speed="13.89" length="20.80" shape="310.40,201.60 289.60,201.60"/>
    </edge>
    <edge id=":13_8" function="internal">
        <lane id=":13_8_0" index="0" speed="9.26" length="19.35" shape="310.40,201.60 305.15,200.85 301.40,198.60 299.15,194.85 298.40,189.60"/>
    </edge>
    <edge id=":13_9" function="internal">
        <lane id=":13_9_0" index="0" speed="3.65" length="4.67" shape="310.40,201.60 309.20,200.80 308.80,200.00 309.20,199.20 310.40,198.40"/>
    </edge>
    <edge id=":13_10" function="internal">
        <lane id=":13_10_0" index="0" speed="6.51" length="9.03" shape="304.80,189.60 305.15,192.05 306.20,193.80 307.95,194.85 310.40,195.20"/>
    </edge>
    <edge id=":13_11" function="internal">
        <lane id=":13_11_0" index="0" speed="13.89" length="20.80" shape="304.80,189.60 304.80,210.40"/>
        <lane id=":13_11_1" index="1" speed="13.89" length="20.80" shape="301.60,189.60 301.60,210.40"/>
    </edge>
    <edge id=":13_13" function="internal">
        <lane id=":13_13_0" index="0" speed="9.26" length="6.96" shape="301.60,189.60 300.85,194.85 300.00,196.27"/>
    </edge>
    <edge id=":13_14" function="internal">
        <lane id=":13_14_0" index="0" speed="3.65" length="2.34" shape="301.60,189.60 300.80,190.80 300.00,191.20"/>
    </edge>
    <edge id=":13_22" function="internal">
        <lane id=":13_22_0" index="0" speed="9.26" length="12.40" shape="300.00,196.27 298.60,198.60 294.85,200.85 289.60,201.60"/>
    </edge>
    <edge id=":13_23" function="internal">
        <lane id=":13_23_0" index="0" speed="3.65" length="2.34" shape="300.00,191.20 299.20,190.80 298.40,189.60"/>
    </edge>
    <edge id=":13_15" function="internal">
        <lane id=":13_15_0" index="0" speed="6.51" length="9.03" shape="289.60,195.20 292.05,194.85 293.80,193.80 294.85,192.05 295.20,189.60"/>
    </edge>
    <edge id=":13_16" function="internal">
        <lane id=":13_16_0" index="0" speed="13.89" length="20.80" shape="289.60,195.20 310.40,195.20"/>
        <lane id=":13_16_1" index="1" speed="13.89" length="20.80" shape="289.60,198.40 310.40,198.40"/>
    </edge>
    <edge id=":13_18" function="internal">
        <lane id=":13_18_0" index="0" speed="9.26" length="19.35" shape="289.60,198.40 294.85,199.15 298.60,201.40 300.85,205.15 301.60,210.40"/>
    </edge>
    <edge id=":13_19" function="internal">
        <lane id=":13_19_0" index="0" speed="3.65" length="4.67" shape="289.60,198.40 290.80,199.20 291.20,200.00 290.80,200.80 289.60,201.60"/>
    </edge>
    <edge id=":14_0" function="internal">
        <lane id=":14_0_0" index="0" speed="6.51" length="9.03" shape="395.20,210.40 394.85,207.95 393.80,206.20 392.05,205.15 389.60,204.80"/>
    </edge>
    <edge id=":14_1" function="internal">
        <lane id=":14_1_0" index="0" speed="13.89" length="20.80" shape="395.20,210.40 395.20,189.60"/>
        <lane id=":14_1_1" index="1" speed="13.89" length="20.80" shape="398.40,210.40 398.40,189.60"/>
    </edge>
    <edge id=":14_3" function="internal">
        <lane id=":14_3_0" index="0" speed="3.65" length="2.34" shape="398.40,210.40 399.20,209.20 400.00,208.80"/>
    </edge>
    <edge id=":14_11" function="internal">
        <lane id=":14_11_0" index="0" speed="3.65" length="2.34" shape="400.00,208.80 400.80,209.20 401.60,210.40"/>
    </edge>
    <edge id=":14_4" function="internal">
        <lane id=":14_4_0" index="0" speed="13.89" length="20.80" shape="404.80,189.60 404.80,210.40"/>
        <lane id=":14_4_1" index="1" speed="13.89" length="20.80" shape="401.60,189.60 401.60,210.40"/>
    </edge>
    <edge id=":14_6" function="internal">
        <lane id=":14_6_0" index="0" speed="9.26" length="6.96" shape="401.60,189.60 400.85,194.85 400.00,196.27"/>
    </edge>
    <edge id=":14_7" function="internal">
        <lane id=":14_7_0" index="0" speed="3.65" length="2.34" shape="401.60,189.60 400.80,190.80 400.00,191.20"/>
    </edge>
    <edge id=":14_12" function="internal">
        <lane id=":14_12_0" index="0" speed="9.26" length="12.40" shape="400.00,196.27 398.60,198.60 394.85,200.85 389.60,201.60"/>
    </edge>
    <edge id=":14_13" function="internal">
        <lane id=":14_13_0" index="0" speed="3.65" length="2.34" shape="400.00,191.20 399.20,190.80 398.40,189.60"/>
    </edge>
    <edge id=":14_8" function="internal">
        <lane id=":14_8_0" index="0" speed="6.51" length="9.03" shape="389.60,195.20 392.05,194.85 393.80,193.80 394.85,192.05 395.20,189.60"/>
    </edge>
    <edge id=":14_9" function="internal">
        <lane id=":14_9_0" index="0" speed="9.26" length="19.35" shape="389.60,198.40 394.85,199.15 398.60,201.40 400.85,205.15 401.60,210.40"/>
    </edge>
    <edge id=":14_10" function="internal">
        <lane id=":14_10_0" index="0" speed="3.65" length="4.67" shape="389.60,198.40 390.80,199.20 391.20,200.00 390.80,200.80 389.60,201.60"/>
    </edge>
    <edge id=":15_0" function="internal">
        <lane id=":15_0_0" index="0" speed="13.89" length="20.80" shape="-4.80,310.40 -4.80,289.60"/>
        <lane id=":15_0_1" index="1" speed="13.89" length="20.80" shape="-1.60,310.40 -1.60,289.60"/>
    </edge>
    <edge id=":15_2" function="internal">
        <lane id=":15_2_0" index="0" speed="9.26" length="6.96" shape="-1.60,310.40 -0.85,305.15 0.00,303.73"/>
    </edge>
    <edge id=":15_3" function="internal">
        <lane id=":15_3_0" index="0" speed="3.65" length="2.34" shape="-1.60,310.40 -0.80,309.20 0.00,308.80"/>
    </edge>
    <edge id=":15_11" function="internal">
        <lane id=":15_11_0" index="0" speed="9.26" length="12.40" shape="0.00,303.73 1.40,301.40 5.15,299.15 10.40,298.40"/>
    </edge>
    <edge id=":15_12" function="internal">
        <lane id=":15_12_0" index="0" speed="3.65" length="2.34" shape="0.00,308.80 0.80,309.20 1.60,310.40"/>
    </edge>
    <edge id=":15_4" function="internal">
        <lane id=":15_4_0" index="0" speed="6.51" length="9.03" shape="10.40,304.80 7.95,305.15 6.20,306.20 5.15,307.95 4.80,310.40"/>
    </edge>
    <edge id=":15_5" function="internal">
        <lane id=":15_5_0" index="0" speed="9.26" length="19.35" shape="10.40,301.60 5.15,300.85 1.40,298.60 -0.85,294.85 -1.60,289.60"/>
    </edge>
    <edge id=":15_6" function="internal">
        <lane id=":15_6_0" index="0" speed="3.65" length="4.67" shape="10.40,301.60 9.20,300.80 8.80,300.00 9.20,299.20 10.40,298.40"/>
    </edge>
    <edge id=":15_7" function="internal">
        <lane id=":15_7_0" index="0" speed="6.51" length="9.03" shape="4.80,289.60 5.15,292.05 6.20,293.80 7.95,294.85 10.40,295.20"/>
    </edge>
    <edge id=":15_8" function="internal">
        <lane id=":15_8_0" index="0" speed="13.89" length="20.80" shape="4.80,289.60 4.80,310.40"/>
        <lane id=":15_8_1" index="1" speed="13.89" length="20.80" shape="1.60,289.60 1.60,310.40"/>
    </edge>
    <edge id=":15_10" function="internal">
        <lane id=":15_10_0" index="0" speed="3.65" length="2.34" shape="1.60,289.60 0.80,290.80 0.00,291.20"/>
    </edge>
    <edge id=":15_13" function="internal">
        <lane id=":15_13_0" index="0" speed="3.65" length="2.34" shape="0.00,291.20 -0.80,290.80 -1.60,289.60"/>
    </edge>
    <edge id=":16_0" function="internal">
        <lane id=":16_0_0" index="0" speed="6.51" length="9.03" shape="95.20,310.40 94.85,307.95 93.80,306.20 92.05,305.15 89.60,304.80"/>
    </edge>
    <edge id=":16_1" function="internal">
        <lane id=":16_1_0" index="0" speed="13.89" length="20.80" shape="95.20,310.40 95.20,289.60"/>
        <lane id=":16_1_1" index="1" speed="13.89" length="20.80" shape="98.40,310.40 98.40,289.60"/>
    </edge>
    <edge id=":16_3" function="internal">
        <lane id=":16_3_0" index="0" speed="9.26" length="6.96" shape="98.40,310.40 99.15,305.15 100.00,303.73"/>
    </edge>
    <edge id=":16_4" function="internal">
        <lane id=":16_4_0" index="0" speed="3.65" length="2.34" shape="98.40,310.40 99.20,309.20 100.00,308.80"/>
    </edge>
    <edge id=":16_20" function="internal">
        <lane id=":16_20_0" index="0" speed="9.26" length="12.40" shape="100.00,303.73 101.40,301.40 105.15,299.15 110.40,298.40"/>
    </edge>
    <edge id=":16_21" function="internal">
        <lane id=":16_21_0" index="0" speed="3.65" length="2.34" shape="100.00,308.80 100.80,309.20 101.60,310.40"/>
    </edge>
    <edge id=":16_5" function="internal">
        <lane id=":16_5_0" index="0" speed="6.51" length="9.03" shape="110.40,304.80 107.95,305.15 106.20,306.20 105.15,307.95 104.80,310.40"/>
    </edge>
    <edge id=":16_6" function="internal">
        <lane id=":16_6_0" index="0" speed="13.89" length="20.80" shape="110.40,304.80 89.60,304.80"/>
        <lane id=":16_6_1" index="1" speed="13.89" length="20.80" shape="110.40,301.60 89.60,301.60"/>
    </edge>
    <edge id=":16_8" function="internal">
        <lane id=":16_8_0" index="0" speed="9.26" length="19.35" shape="110.40,301.60 105.15,300.85 101.40,298.60 99.15,294.85 98.40,289.60"/>
    </edge>
    <edge id=":16_9" function="internal">
        <lane id=":16_9_0" index="0" speed="3.65" length="4.67" shape="110.40,301.60 109.20,300.80 108.80,300.00 109.20,299.20 110.40,298.40"/>
    </edge>
    <edge id=":16_10" function="internal">
        <lane id=":16_10_0" index="0" speed="6.51" length="9.03" shape="104.80,289.60 105.15,292.05 106.20,293.80 107.95,294.85 110.40,295.20"/>
    </edge>
    <edge id=":16_11" function="internal">
        <lane id=":16_11_0" index="0" speed="13.89" length="20.80" shape="104.80,289.60 104.80,310.40"/>
        <lane id=":16_11_1" index="1" speed="13.89" length="20.80" shape="101.60,289.60 101.60,310.40"/>
    </edge>
    <edge id=":16_13" function="internal">
        <lane id=":16_13_0" index="0" speed="9.26" length="6.96" shape="101.60,289.60 100.85,294.85 100.00,296.27"/>
    </edge>
    <edge id=":16_14" function="internal">
        <lane id=":16_14_0" index="0" speed="3.65" length="2.34" shape="101.60,289.60 100.80,290.80 100.00,291.20"/>
    </edge>
    <edge id=":16_22" function="internal">
        <lane id=":16_22_0" index="0" speed="9.26" length="12.40" shape="100.00,296.27 98.60,298.60 94.85,300.85 89.60,301.60"/>
    </edge>
    <edge id=":16_23" function="internal">
        <lane id=":16_23_0" index="0" speed="3.65" length="2.34" shape="100.00,291.20 99.20,290.80 98.40,289.60"/>
    </edge>
    <edge id=":16_15" function="internal">
        <lane id=":16_15_0" index="0" speed="6.51" length="9.03" shape="89.60,295.20 92.05,294.85 93.80,293.80 94.85,292.05 95.20,289.60"/>
    </edge>
    <edge id=":16_16" function="internal">
        <lane id=":16_16_0" index="0" speed="13.89" length="20.80" shape="89.60,295.20 110.40,295.20"/>
        <lane id=":16_16_1" index="1" speed="13.89" length="20.80" shape="89.60,298.40 110.40,298.40"/>
    </edge>
    <edge id=":16_18" function="internal">
        <lane id=":16_18_0" index="0" speed="9.26" length="19.35" shape="89.60,298.40 94.85,299.15 98.60,301.40 100.85,305.15 101.60,310.40"/>
    </edge>
    <edge id=":16_19" function="internal">
        <lane id=":16_19_0" index="0" speed="3.65" length="4.67" shape="89.60,298.40 90.80,299.20 91.20,300.00 90.80,300.80 89.60,301.60"/>
    </edge>
    <edge id=":17_0" function="internal">
        <lane id=":17_0_0" index="0" speed="6.51" length="9.03" shape="195.20,310.40 194.85,307.95 193.80,306.20 192.05,305.15 189.60,304.80"/>
    </edge>
    <edge id=":17_1" function="internal">
        <lane id=":17_1_0" index="0" speed="13.89" length="20.80" shape="195.20,310.40 195.20,289.60"/>
        <lane id=":17_1_1" index="1" speed="13.89" length="20.80" shape="198.40,310.40 198.40,289.60"/>
    </edge>
    <edge id=":17_3" function="internal">
        <lane id=":17_3_0" index="0" speed="9.26" length="6.96" shape="198.40,310.40 199.15,305.15 200.00,303.73"/>
    </edge>
    <edge id=":17_4" function="internal">
        <lane id=":17_4_0" index="0" speed="3.65" length="2.34" shape="198.40,310.40 199.20,309.20 200.00,308.80"/>
    </edge>
    <edge id=":17_20" function="internal">
        <lane id=":17_20_0" index="0" speed="9.26" length="12.40" shape="200.00,303.73 201.40,301.40 205.15,299.15 210.40,298.40"/>
    </edge>
    <edge id=":17_21" function="internal">
        <lane id=":17_21_0" index="0" speed="3.65" length="2.34" shape="200.00,308.80 200.80,309.20 201.60,310.40"/>
    </edge>
    <edge id=":17_5" function="internal">
        <lane id=":17_5_0" index="0" speed="6.51" length="9.03" shape="210.40,304.80 207.95,305.15 206.20,306.20 205.15,307.95 204.80,310.40"/>
    </edge>
    <edge id=":17_6" function="internal">
        <lane id=":17_6_0" index="0" speed="13.89" length="20.80" shape="210.40,304.80 189.60,304.80"/>
        <lane id=":17_6_1" index="1" speed="13.89" length="20.80" shape="210.40,301.60 189.60,301.60"/>
    </edge>
    <edge id=":17_8" function="internal">
        <lane id=":17_8_0" index="0" speed="9.26" length="19.35" shape="210.40,301.60 205.15,300.85 201.40,298.60 199.15,294.85 198.40,289.60"/>
    </edge>
    <edge id=":17_9" function="internal">
        <lane id=":17_9_0" index="0" speed="3.65" length="4.67" shape="210.40,301.60 209.20,300.80 208.80,300.00 209.20,299.20 210.40,298.40"/>
    </edge>
    <edge id=":17_10" function="internal">
        <lane id=":17_10_0" index="0" speed="6.51" length="9.03" shape="204.80,289.60 205.15,292.05 206.20,293.80 207.95,294.85 210.40,295.20"/>
    </edge>
    <edge id=":17_11" function="internal">
        <lane id=":17_11_0" index="0" speed="13.89" length="20.80" shape="204.80,289.60 204.80,310.40"/>
        <lane id=":17_11_1" index="1" speed="13.89" length="20.80" shape="201.60,289.60 201.60,310.40"/>
    </edge>
    <edge id=":17_13" function="internal">
        <lane id=":17_13_0" index="0" speed="9.26" length="6.96" shape="201.60,289.60 200.85,294.85 200.00,296.27"/>
    </edge>
    <edge id=":17_14" function="internal">
        <lane id=":17_14_0" index="0" speed="3.65" length="2.34" shape="201.60,289.60 200.80,290.80 200.00,291.20"/>
    </edge>
    <edge id=":17_22" function="internal">
        <lane id=":17_22_0" index="0" speed="9.26" length="12.40" shape="200.00,296.27 198.60,298.60 194.85,300.85 189.60,301.60"/>
    </edge>
    <edge id=":17_23" function="internal">
        <lane id=":17_23_0" index="0" speed="3.65" length="2.34" shape="200.00,291.20 199.20,290.80 198.40,289.60"/>