<?xml version="1.0" encoding="UTF-8"?>

<!-- generated on Thursday 27 February 2020 04:25:13 PM IST by Eclipse SUMO netedit Version 1.2.0
<configuration xmlns:xsi="http://www.w3.org/2001/XMLSchema-instance" xsi:noNamespaceSchemaLocation="http://sumo.dlr.de/xsd/netconvertConfiguration.xsd">

    <input>
        <sumo-net-file value="/home/meghdeep/Meghdeep/SysCon/sumo_rl/rl_env/grid_asym.net.xml"/>
    </input>

    <output>
        <output-file value="/home/meghdeep/Meghdeep/SysCon/sumo_rl/rl_env/grid_asym.net.xml"/>
    </output>

    <processing>
        <geometry.max-grade.fix value="false"/>
        <offset.disable-normalization value="true"/>
        <lefthand value="false"/>
    </processing>

    <junctions>
        <no-turnarounds value="true"/>
        <junctions.corner-detail value="5"/>
        <junctions.limit-turn-speed value="5.5"/>
        <rectangular-lane-cut value="false"/>
    </junctions>

    <pedestrian>
        <walkingareas value="false"/>
    </pedestrian>

</configuration>
-->

<net version="1.1" junctionCornerDetail="5" limitTurnSpeed="5.50" xmlns:xsi="http://www.w3.org/2001/XMLSchema-instance" xsi:noNamespaceSchemaLocation="http://sumo.dlr.de/xsd/net_file.xsd">

    <location netOffset="0.00,0.00" convBoundary="0.00,0.00,500.00,500.00" origBoundary="0.00,0.00,400.00,400.00" projParameter="!"/>

    <edge id=":1_0" function="internal">
        <lane id=":1_0_0" index="0" speed="8.96" length="18.06" shape="95.20,6.40 95.90,1.50 98.00,-2.00 101.50,-4.10 106.40,-4.80"/>
    </edge>
    <edge id=":1_1" function="internal">
        <lane id=":1_1_0" index="0" speed="5.58" length="8.43" shape="95.20,6.40 97.60,2.80 100.00,1.60 101.27,2.24"/>
    </edge>
    <edge id=":1_2" function="internal">
        <lane id=":1_2_0" index="0" speed="7.66" length="12.90" shape="98.40,6.40 98.90,2.90 100.40,0.40 102.90,-1.10 106.40,-1.60"/>
    </edge>
    <edge id=":1_3" function="internal">
        <lane id=":1_3_0" index="0" speed="3.65" length="2.56" shape="98.40,6.40 99.20,5.20 100.00,4.80 100.20,4.90"/>
    </edge>
    <edge id=":1_8" function="internal">
        <lane id=":1_8_0" index="0" speed="5.58" length="5.59" shape="101.27,2.24 102.40,2.80 104.80,6.40"/>
    </edge>
    <edge id=":1_9" function="internal">
        <lane id=":1_9_0" index="0" speed="3.65" length="2.12" shape="100.20,4.90 100.80,5.20 101.60,6.40"/>
    </edge>
    <edge id=":1_4" function="internal">
        <lane id=":1_4_0" index="0" speed="3.90" length="2.58" shape="106.40,4.80 105.70,4.90 105.20,5.20 104.90,5.70 104.80,6.40"/>
    </edge>
    <edge id=":1_5" function="internal">
        <lane id=":1_5_0" index="0" speed="5.58" length="5.68" shape="106.40,4.80 102.80,2.40 102.19,1.19"/>
    </edge>
    <edge id=":1_6" function="internal">
        <lane id=":1_6_0" index="0" speed="6.08" length="7.74" shape="106.40,1.60 104.30,1.90 102.80,2.80 101.90,4.30 101.60,6.40"/>
    </edge>
    <edge id=":1_7" function="internal">
        <lane id=":1_7_0" index="0" speed="3.65" length="2.08" shape="106.40,1.60 105.20,0.80 104.91,0.23"/>
    </edge>
    <edge id=":1_10" function="internal">
        <lane id=":1_10_0" index="0" speed="5.58" length="8.34" shape="102.19,1.19 101.60,0.00 102.80,-2.40 106.40,-4.80"/>
    </edge>
    <edge id=":1_11" function="internal">
        <lane id=":1_11_0" index="0" speed="3.65" length="2.59" shape="104.91,0.23 104.80,0.00 105.20,-0.80 106.40,-1.60"/>
    </edge>
    <edge id=":10_0" function="internal">
        <lane id=":10_0_0" index="0" speed="6.51" length="9.03" shape="395.20,110.40 394.85,107.95 393.80,106.20 392.05,105.15 389.60,104.80"/>
    </edge>
    <edge id=":10_1" function="internal">
        <lane id=":10_1_0" index="0" speed="13.89" length="20.80" shape="395.20,110.40 395.20,89.60"/>
    </edge>
    <edge id=":10_2" function="internal">
        <lane id=":10_2_0" index="0" speed="10.10" length="7.47" shape="395.20,110.40 396.57,105.00 397.69,103.46"/>
    </edge>
    <edge id=":10_3" function="internal">
        <lane id=":10_3_0" index="0" speed="5.58" length="7.01" shape="395.20,110.40 397.60,106.80 400.00,105.60"/>
    </edge>
    <edge id=":10_4" function="internal">
        <lane id=":10_4_0" index="0" speed="8.00" length="5.93" shape="398.40,110.40 397.85,106.55 396.80,104.80"/>
    </edge>
    <edge id=":10_5" function="internal">
        <lane id=":10_5_0" index="0" speed="13.89" length="20.80" shape="398.40,110.40 398.40,89.60"/>
    </edge>
    <edge id=":10_6" function="internal">
        <lane id=":10_6_0" index="0" speed="9.02" length="5.28" shape="398.40,110.40 399.48,106.14 400.00,105.42"/>
    </edge>
    <edge id=":10_7" function="internal">
        <lane id=":10_7_0" index="0" speed="3.65" length="2.34" shape="398.40,110.40 399.20,109.20 400.00,108.80"/>
    </edge>
    <edge id=":10_32" function="internal">
        <lane id=":10_32_0" index="0" speed="10.10" length="15.74" shape="397.69,103.46 400.11,100.11 405.00,96.57 410.40,95.20"/>
    </edge>
    <edge id=":10_33" function="internal">
        <lane id=":10_33_0" index="0" speed="5.58" length="7.01" shape="400.00,105.60 402.40,106.80 404.80,110.40"/>
    </edge>
    <edge id=":10_34" function="internal">
        <lane id=":10_34_0" index="0" speed="8.00" length="8.26" shape="396.80,104.80 396.20,103.80 393.45,102.15 389.60,101.60"/>
    </edge>
    <edge id=":10_35" function="internal">
        <lane id=":10_35_0" index="0" speed="9.02" length="13.05" shape="400.00,105.42 402.28,102.28 406.14,99.48 410.40,98.40"/>
    </edge>
    <edge id=":10_36" function="internal">
        <lane id=":10_36_0" index="0" speed="3.65" length="2.34" shape="400.00,108.80 400.80,109.20 401.60,110.40"/>
    </edge>
    <edge id=":10_8" function="internal">
        <lane id=":10_8_0" index="0" speed="6.51" length="9.03" shape="410.40,104.80 407.95,105.15 406.20,106.20 405.15,107.95 404.80,110.40"/>
    </edge>
    <edge id=":10_9" function="internal">
        <lane id=":10_9_0" index="0" speed="13.89" length="20.80" shape="410.40,104.80 389.60,104.80"/>
    </edge>
    <edge id=":10_10" function="internal">
        <lane id=":10_10_0" index="0" speed="10.10" length="23.22" shape="410.40,104.80 405.00,103.43 400.11,99.89 396.57,95.00 395.20,89.60"/>
    </edge>
    <edge id=":10_11" function="internal">
        <lane id=":10_11_0" index="0" speed="5.58" length="14.02" shape="410.40,104.80 406.80,102.40 405.60,100.00 406.80,97.60 410.40,95.20"/>
    </edge>
    <edge id=":10_12" function="internal">
        <lane id=":10_12_0" index="0" speed="8.00" length="14.19" shape="410.40,101.60 406.55,102.15 403.80,103.80 402.15,106.55 401.60,110.40"/>
    </edge>
    <edge id=":10_13" function="internal">
        <lane id=":10_13_0" index="0" speed="13.89" length="20.80" shape="410.40,101.60 389.60,101.60"/>
    </edge>
    <edge id=":10_14" function="internal">
        <lane id=":10_14_0" index="0" speed="9.02" length="18.33" shape="410.40,101.60 406.14,100.52 402.28,97.72 399.48,93.86 398.40,89.60"/>
    </edge>
    <edge id=":10_15" function="internal">
        <lane id=":10_15_0" index="0" speed="3.65" length="4.67" shape="410.40,101.60 409.20,100.80 408.80,100.00 409.20,99.20 410.40,98.40"/>
    </edge>
    <edge id=":10_16" function="internal">
        <lane id=":10_16_0" index="0" speed="6.51" length="9.03" shape="404.80,89.60 405.15,92.05 406.20,93.80 407.95,94.85 410.40,95.20"/>
    </edge>
    <edge id=":10_17" function="internal">
        <lane id=":10_17_0" index="0" speed="13.89" length="20.80" shape="404.80,89.60 404.80,110.40"/>
    </edge>
    <edge id=":10_18" function="internal">
        <lane id=":10_18_0" index="0" speed="10.10" length="7.47" shape="404.80,89.60 403.43,95.00 402.31,96.54"/>
    </edge>
    <edge id=":10_19" function="internal">
        <lane id=":10_19_0" index="0" speed="5.58" length="7.01" shape="404.80,89.60 402.40,93.20 400.00,94.40"/>
    </edge>
    <edge id=":10_20" function="internal">
        <lane id=":10_20_0" index="0" speed="8.00" length="5.93" shape="401.60,89.60 402.15,93.45 403.20,95.20"/>
    </edge>
    <edge id=":10_21" function="internal">
        <lane id=":10_21_0" index="0" speed="13.89" length="20.80" shape="401.60,89.60 401.60,110.40"/>
    </edge>
    <edge id=":10_22" function="internal">
        <lane id=":10_22_0" index="0" speed="9.02" length="5.28" shape="401.60,89.60 400.52,93.86 400.00,94.58"/>
    </edge>
    <edge id=":10_23" function="internal">
        <lane id=":10_23_0" index="0" speed="3.65" length="2.34" shape="401.60,89.60 400.80,90.80 400.00,91.20"/>
    </edge>
    <edge id=":10_37" function="internal">
        <lane id=":10_37_0" index="0" speed="10.10" length="15.74" shape="402.31,96.54 399.89,99.89 395.00,103.43 389.60,104.80"/>
    </edge>
    <edge id=":10_38" function="internal">
        <lane id=":10_38_0" index="0" speed="5.58" length="7.01" shape="400.00,94.40 397.60,93.20 395.20,89.60"/>
    </edge>
    <edge id=":10_39" function="internal">
        <lane id=":10_39_0" index="0" speed="8.00" length="8.26" shape="403.20,95.20 403.80,96.20 406.55,97.85 410.40,98.40"/>
    </edge>
    <edge id=":10_40" function="internal">
        <lane id=":10_40_0" index="0" speed="9.02" length="13.05" shape="400.00,94.58 397.72,97.72 393.86,100.52 389.60,101.60"/>
    </edge>
    <edge id=":10_41" function="internal">
        <lane id=":10_41_0" index="0" speed="3.65" length="2.34" shape="400.00,91.20 399.20,90.80 398.40,89.60"/>
    </edge>
    <edge id=":10_24" function="internal">
        <lane id=":10_24_0" index="0" speed="6.51" length="9.03" shape="389.60,95.20 392.05,94.85 393.80,93.80 394.85,92.05 395.20,89.60"/>
    </edge>
    <edge id=":10_25" function="internal">
        <lane id=":10_25_0" index="0" speed="13.89" length="20.80" shape="389.60,95.20 410.40,95.20"/>
    </edge>
    <edge id=":10_26" function="internal">
        <lane id=":10_26_0" index="0" speed="10.10" length="23.22" shape="389.60,95.20 395.00,96.57 399.89,100.11 403.43,105.00 404.80,110.40"/>
    </edge>
    <edge id=":10_27" function="internal">
        <lane id=":10_27_0" index="0" speed="5.58" length="14.02" shape="389.60,95.20 393.20,97.60 394.40,100.00 393.20,102.40 389.60,104.80"/>
    </edge>
    <edge id=":10_28" function="internal">
        <lane id=":10_28_0" index="0" speed="8.00" length="14.19" shape="389.60,98.40 393.45,97.85 396.20,96.20 397.85,93.45 398.40,89.60"/>
    </edge>
    <edge id=":10_29" function="internal">
        <lane id=":10_29_0" index="0" speed="13.89" length="20.80" shape="389.60,98.40 410.40,98.40"/>
    </edge>
    <edge id=":10_30" function="internal">
        <lane id=":10_30_0" index="0" speed="9.02" length="18.33" shape="389.60,98.40 393.86,99.48 397.72,102.28 400.52,106.14 401.60,110.40"/>
    </edge>
    <edge id=":10_31" function="internal">
        <lane id=":10_31_0" index="0" speed="3.65" length="4.67" shape="389.60,98.40 390.80,99.20 391.20,100.00 390.80,100.80 389.60,101.60"/>
    </edge>
    <edge id=":11_0" function="internal">
        <lane id=":11_0_0" index="0" speed="8.96" length="18.06" shape="504.80,93.60 504.10,98.50 502.00,102.00 498.50,104.10 493.60,104.80"/>
    </edge>
    <edge id=":11_1" function="internal">
        <lane id=":11_1_0" index="0" speed="5.58" length="8.43" shape="504.80,93.60 502.40,97.20 500.00,98.40 498.73,97.76"/>
    </edge>
    <edge id=":11_2" function="internal">
        <lane id=":11_2_0" index="0" speed="7.66" length="12.90" shape="501.60,93.60 501.10,97.10 499.60,99.60 497.10,101.10 493.60,101.60"/>
    </edge>
    <edge id=":11_3" function="internal">
        <lane id=":11_3_0" index="0" speed="3.65" length="2.56" shape="501.60,93.60 500.80,94.80 500.00,95.20 499.80,95.10"/>
    </edge>
    <edge id=":11_8" function="internal">
        <lane id=":11_8_0" index="0" speed="5.58" length="5.59" shape="498.73,97.76 497.60,97.20 495.20,93.60"/>
    </edge>
    <edge id=":11_9" function="internal">
        <lane id=":11_9_0" index="0" speed="3.65" length="2.12" shape="499.80,95.10 499.20,94.80 498.40,93.60"/>
    </edge>
    <edge id=":11_4" function="internal">
        <lane id=":11_4_0" index="0" speed="3.90" length="2.58" shape="493.60,95.20 494.30,95.10 494.80,94.80 495.10,94.30 495.20,93.60"/>
    </edge>
    <edge id=":11_5" function="internal">
        <lane id=":11_5_0" index="0" speed="5.58" length="5.68" shape="493.60,95.20 497.20,97.60 497.81,98.81"/>
    </edge>
    <edge id=":11_6" function="internal">
        <lane id=":11_6_0" index="0" speed="6.08" length="7.74" shape="493.60,98.40 495.70,98.10 497.20,97.20 498.10,95.70 498.40,93.60"/>
    </edge>
    <edge id=":11_7" function="internal">
        <lane id=":11_7_0" index="0" speed="3.65" length="2.08" shape="493.60,98.40 494.80,99.20 495.09,99.77"/>
    </edge>
    <edge id=":11_10" function="internal">
        <lane id=":11_10_0" index="0" speed="5.58" length="8.34" shape="497.81,98.81 498.40,100.00 497.20,102.40 493.60,104.80"/>
    </edge>
    <edge id=":11_11" function="internal">
        <lane id=":11_11_0" index="0" speed="3.65" length="2.59" shape="495.09,99.77 495.20,100.00 494.80,100.80 493.60,101.60"/>
    </edge>
    <edge id=":12_0" function="internal">
        <lane id=":12_0_0" index="0" speed="13.89" length="20.80" shape="-4.80,210.40 -4.80,189.60"/>
    </edge>
    <edge id=":12_1" function="internal">
        <lane id=":12_1_0" index="0" speed="10.36" length="13.42" shape="-4.80,210.40 -3.85,203.75 -1.00,199.00 -0.00,198.40"/>
    </edge>
    <edge id=":12_2" function="internal">
        <lane id=":12_2_0" index="0" speed="5.58" length="7.01" shape="-4.80,210.40 -2.40,206.80 0.00,205.60"/>
    </edge>
    <edge id=":12_3" function="internal">
        <lane id=":12_3_0" index="0" speed="13.89" length="20.80" shape="-1.60,210.40 -1.60,189.60"/>
    </edge>
    <edge id=":12_4" function="internal">
        <lane id=":12_4_0" index="0" speed="9.26" length="6.96" shape="-1.60,210.40 -0.85,205.15 -0.00,203.73"/>
    </edge>
    <edge id=":12_5" function="internal">
        <lane id=":12_5_0" index="0" speed="3.65" length="2.34" shape="-1.60,210.40 -0.80,209.20 0.00,208.80"/>
    </edge>
    <edge id=":12_18" function="internal">
        <lane id=":12_18_0" index="0" speed="10.36" length="11.09" shape="-0.00,198.40 3.75,196.15 10.40,195.20"/>
    </edge>
    <edge id=":12_19" function="internal">
        <lane id=":12_19_0" index="0" speed="5.58" length="7.01" shape="0.00,205.60 2.40,206.80 4.80,210.40"/>
    </edge>
    <edge id=":12_20" function="internal">
        <lane id=":12_20_0" index="0" speed="9.26" length="12.40" shape="-0.00,203.73 1.40,201.40 5.15,199.15 10.40,198.40"/>
    </edge>
    <edge id=":12_21" function="internal">
        <lane id=":12_21_0" index="0" speed="3.65" length="2.34" shape="0.00,208.80 0.80,209.20 1.60,210.40"/>
    </edge>
    <edge id=":12_6" function="internal">
        <lane id=":12_6_0" index="0" speed="6.51" length="9.03" shape="10.40,204.80 7.95,205.15 6.20,206.20 5.15,207.95 4.80,210.40"/>
    </edge>
    <edge id=":12_7" function="internal">
        <lane id=":12_7_0" index="0" speed="10.36" length="24.51" shape="10.40,204.80 3.75,203.85 -1.00,201.00 -3.85,196.25 -4.80,189.60"/>
    </edge>
    <edge id=":12_8" function="internal">
        <lane id=":12_8_0" index="0" speed="5.58" length="14.02" shape="10.40,204.80 6.80,202.40 5.60,200.00 6.80,197.60 10.40,195.20"/>
    </edge>
    <edge id=":12_9" function="internal">
        <lane id=":12_9_0" index="0" speed="8.00" length="14.19" shape="10.40,201.60 6.55,202.15 3.80,203.80 2.15,206.55 1.60,210.40"/>
    </edge>
    <edge id=":12_10" function="internal">
        <lane id=":12_10_0" index="0" speed="9.26" length="19.35" shape="10.40,201.60 5.15,200.85 1.40,198.60 -0.85,194.85 -1.60,189.60"/>
    </edge>
    <edge id=":12_11" function="internal">
        <lane id=":12_11_0" index="0" speed="3.65" length="4.67" shape="10.40,201.60 9.20,200.80 8.80,200.00 9.20,199.20 10.40,198.40"/>
    </edge>
    <edge id=":12_12" function="internal">
        <lane id=":12_12_0" index="0" speed="6.51" length="9.03" shape="4.80,189.60 5.15,192.05 6.20,193.80 7.95,194.85 10.40,195.20"/>
    </edge>
    <edge id=":12_13" function="internal">
        <lane id=":12_13_0" index="0" speed="13.89" length="20.80" shape="4.80,189.60 4.80,210.40"/>
    </edge>
    <edge id=":12_14" function="internal">
        <lane id=":12_14_0" index="0" speed="5.58" length="7.01" shape="4.80,189.60 2.40,193.20 0.00,194.40"/>
    </edge>
    <edge id=":12_15" function="internal">
        <lane id=":12_15_0" index="0" speed="8.00" length="5.93" shape="1.60,189.60 2.15,193.45 3.20,195.20"/>
    </edge>
    <edge id=":12_16" function="internal">
        <lane id=":12_16_0" index="0" speed="13.89" length="20.80" shape="1.60,189.60 1.60,210.40"/>
    </edge>
    <edge id=":12_17" function="internal">
        <lane id=":12_17_0" index="0" speed="3.65" length="2.34" shape="1.60,189.60 0.80,190.80 0.00,191.20"/>
    </edge>
    <edge id=":12_22" function="internal">
        <lane id=":12_22_0" index="0" speed="5.58" length="7.01" shape="0.00,194.40 -2.40,193.20 -4.80,189.60"/>
    </edge>
    <edge id=":12_23" function="internal">
        <lane id=":12_23_0" index="0" speed="8.00" length="8.26" shape="3.20,195.20 3.80,196.20 6.55,197.85 10.40,198.40"/>
    </edge>
    <edge id=":12_24" function="internal">
        <lane id=":12_24_0" index="0" speed="3.65" length="2.34" shape="0.00,191.20 -0.80,190.80 -1.60,189.60"/>
    </edge>
    <edge id=":13_0" function="internal">
        <lane id=":13_0_0" index="0" speed="6.51" length="9.03" shape="95.20,210.40 94.85,207.95 93.80,206.20 92.05,205.15 89.60,204.80"/>
    </edge>
    <edge id=":13_1" function="internal">
        <lane id=":13_1_0" index="0" speed="13.89" length="20.80" shape="95.20,210.40 95.20,189.60"/>
    </edge>
    <edge id=":13_2" function="internal">
        <lane id=":13_2_0" index="0" speed="10.10" length="7.47" shape="95.20,210.40 96.57,205.00 97.69,203.46"/>
    </edge>
    <edge id=":13_3" function="internal">
        <lane id=":13_3_0" index="0" speed="5.58" length="7.01" shape="95.20,210.40 97.60,206.80 100.00,205.60"/>
    </edge>
    <edge id=":13_4" function="internal">
        <lane id=":13_4_0" index="0" speed="8.00" length="5.93" shape="98.40,210.40 97.85,206.55 96.80,204.80"/>
    </edge>
    <edge id=":13_5" function="internal">
        <lane id=":13_5_0" index="0" speed="13.89" length="20.80" shape="98.40,210.40 98.40,189.60"/>
    </edge>
    <edge id=":13_6" function="internal">
        <lane id=":13_6_0" index="0" speed="9.02" length="5.28" shape="98.40,210.40 99.48,206.14 100.00,205.42"/>
    </edge>
    <edge id=":13_7" function="internal">
        <lane id=":13_7_0" index="0" speed="3.65" length="2.34" shape="98.40,210.40 99.20,209.20 100.00,208.80"/>
    </edge>
    <edge id=":13_32" function="internal">
        <lane id=":13_32_0" index="0" speed="10.10" length="15.74" shape="97.69,203.46 100.11,200.11 105.00,196.57 110.40,195.20"/>
    </edge>
    <edge id=":13_33" function="internal">
        <lane id=":13_33_0" index="0" speed="5.58" length="7.01" shape="100.00,205.60 102.40,206.80 104.80,210.40"/>
    </edge>
    <edge id=":13_34" function="internal">
        <lane id=":13_34_0" index="0" speed="8.00" length="8.26" shape="96.80,204.80 96.20,203.80 93.45,202.15 89.60,201.60"/>
    </edge>
    <edge id=":13_35" function="internal">
        <lane id=":13_35_0" index="0" speed="9.02" length="13.05" shape="100.00,205.42 102.28,202.28 106.14,199.48 110.40,198.40"/>
    </edge>
    <edge id=":13_36" function="internal">
        <lane id=":13_36_0" index="0" speed="3.65" length="2.34" shape="100.00,208.80 100.80,209.20 101.60,210.40"/>
    </edge>
    <edge id=":13_8" function="internal">
        <lane id=":13_8_0" index="0" speed="6.51" length="9.03" shape="110.40,204.80 107.95,205.15 106.20,206.20 105.15,207.95 104.80,210.40"/>
    </edge>
    <edge id=":13_9" function="internal">
        <lane id=":13_9_0" index="0" speed="13.89" length="20.80" shape="110.40,204.80 89.60,204.80"/>
    </edge>
    <edge id=":13_10" function="internal">
        <lane id=":13_10_0" index="0" speed="10.10" length="23.22" shape="110.40,204.80 105.00,203.43 100.11,199.89 96.57,195.00 95.20,189.60"/>
    </edge>
    <edge id=":13_11" function="internal">
        <lane id=":13_11_0" index="0" speed="5.58" length="14.02" shape="110.40,204.80 106.80,202.40 105.60,200.00 106.80,197.60 110.40,195.20"/>
    </edge>
    <edge id=":13_12" function="internal">
        <lane id=":13_12_0" index="0" speed="8.00" length="14.19" shape="110.40,201.60 106.55,202.15 103.80,203.80 102.15,206.55 101.60,210.40"/>
    </edge>
    <edge id=":13_13" function="internal">
        <lane id=":13_13_0" index="0" speed="13.89" length="20.80" shape="110.40,201.60 89.60,201.60"/>
    </edge>
    <edge id=":13_14" function="internal">
        <lane id=":13_14_0" index="0" speed="9.02" length="18.33" shape="110.40,201.60 106.14,200.52 102.28,197.72 99.48,193.86 98.40,189.60"/>
    </edge>
    <edge id=":13_15" function="internal">
        <lane id=":13_15_0" index="0" speed="3.65" length="4.67" shape="110.40,201.60 109.20,200.80 108.80,200.00 109.20,199.20 110.40,198.40"/>
    </edge>
    <edge id=":13_16" function="internal">
        <lane id=":13_16_0" index="0" speed="6.51" length="9.03" shape="104.80,189.60 105.15,192.05 106.20,193.80 107.95,194.85 110.40,195.20"/>
    </edge>
    <edge id=":13_17" function="internal">
        <lane id=":13_17_0" index="0" speed="13.89" length="20.80" shape="104.80,189.60 104.80,210.40"/>
    </edge>
    <edge id=":13_18" function="internal">
        <lane id=":13_18_0" index="0" speed="10.10" length="7.47" shape="104.80,189.60 103.43,195.00 102.31,196.54"/>
    </edge>
    <edge id=":13_19" function="internal">
        <lane id=":13_19_0" index="0" speed="5.58" length="7.01" shape="104.80,189.60 102.40,193.20 100.00,194.40"/>
    </edge>
    <edge id=":13_20" function="internal">
        <lane id=":13_20_0" index="0" speed="8.00" length="5.93" shape="101.60,189.60 102.15,193.45 103.20,195.20"/>
    </edge>
    <edge id=":13_21" function="internal">
        <lane id=":13_21_0" index="0" speed="13.89" length="20.80" shape="101.60,189.60 101.60,210.40"/>
    </edge>
    <edge id=":13_22" function="internal">
        <lane id=":13_22_0" index="0" speed="9.02" length="5.28" shape="101.60,189.60 100.52,193.86 100.00,194.58"/>
    </edge>
    <edge id=":13_23" function="internal">
        <lane id=":13_23_0" index="0" speed="3.65" length="2.34" shape="101.60,189.60 100.80,190.80 100.00,191.20"/>
    </edge>
    <edge id=":13_37" function="internal">
        <lane id=":13_37_0" index="0" speed="10.10" length="15.74" shape="102.31,196.54 99.89,199.89 95.00,203.43 89.60,204.80"/>
    </edge>
    <edge id=":13_38" function="internal">
        <lane id=":13_38_0" index="0" speed="5.58" length="7.01" shape="100.00,194.40 97.60,193.20 95.20,189.60"/>
    </edge>
    <edge id=":13_39" function="internal">
        <lane id=":13_39_0" index="0" speed="8.00" length="8.26" shape="103.20,195.20 103.80,196.20 106.55,197.85 110.40,198.40"/>
    </edge>
    <edge id=":13_40" function="internal">
        <lane id=":13_40_0" index="0" speed="9.02" length="13.05" shape="100.00,194.58 97.72,197.72 93.86,200.52 89.60,201.60"/>
    </edge>
    <edge id=":13_41" function="internal">
        <lane id=":13_41_0" index="0" speed="3.65" length="2.34" shape="100.00,191.20 99.20,190.80 98.40,189.60"/>
    </edge>
    <edge id=":13_24" function="internal">
        <lane id=":13_24_0" index="0" speed="6.51" length="9.03" shape="89.60,195.20 92.05,194.85 93.80,193.80 94.85,192.05 95.20,189.60"/>
    </edge>
    <edge id=":13_25" function="internal">
        <lane id=":13_25_0" index="0" speed="13.89" length="20.80" shape="89.60,195.20 110.40,195.20"/>
    </edge>
    <edge id=":13_26" function="internal">
        <lane id=":13_26_0" index="0" speed="10.10" length="23.22" shape="89.60,195.20 95.00,196.57 99.89,200.11 103.43,205.00 104.80,210.40"/>
    </edge>
    <edge id=":13_27" function="internal">
        <lane id=":13_27_0" index="0" speed="5.58" length="14.02" shape="89.60,195.20 93.20,197.60 94.40,200.00 93.20,202.40 89.60,204.80"/>
    </edge>
    <edge id=":13_28" function="internal">
        <lane id=":13_28_0" index="0" speed="8.00" length="14.19" shape="89.60,198.40 93.45,197.85 96.20,196.20 97.85,193.45 98.40,189.60"/>
    </edge>
    <edge id=":13_29" function="internal">
        <lane id=":13_29_0" index="0" speed="13.89" length="20.80" shape="89.60,198.40 110.40,198.40"/>
    </edge>
    <edge id=":13_30" function="internal">
        <lane id=":13_30_0" index="0" speed="9.02" length="18.33" shape="89.60,198.40 93.86,199.48 97.72,202.28 100.52,206.14 101.60,210.40"/>
    </edge>
    <edge id=":13_31" function="internal">
        <lane id=":13_31_0" index="0" speed="3.65" length="4.67" shape="89.60,198.40 90.80,199.20 91.20,200.00 90.80,200.80 89.60,201.60"/>
    </edge>
    <edge id=":14_0" function="internal">
        <lane id=":14_0_0" index="0" speed="6.51" length="9.03" shape="195.20,210.40 194.85,207.95 193.80,206.20 192.05,205.15 189.60,204.80"/>
    </edge>
    <edge id=":14_1" function="internal">
        <lane id=":14_1_0" index="0" speed="13.89" length="20.80" shape="195.20,210.40 195.20,189.60"/>
    </edge>
    <edge id=":14_2" function="internal">
        <lane id=":14_2_0" index="0" speed="10.10" length="7.47" shape="195.20,210.40 196.57,205.00 197.69,203.46"/>
    </edge>
    <edge id=":14_3" function="internal">
        <lane id=":14_3_0" index="0" speed="5.58" length="7.01" shape="195.20,210.40 197.60,206.80 200.00,205.60"/>
    </edge>
    <edge id=":14_4" function="internal">
        <lane id=":14_4_0" index="0" speed="8.00" length="5.93" shape="198.40,210.40 197.85,206.55 196.80,204.80"/>
    </edge>
    <edge id=":14_5" function="internal">
        <lane id=":14_5_0" index="0" speed="13.89" length="20.80" shape="198.40,210.40 198.40,189.60"/>
    </edge>
    <edge id=":14_6" function="internal">
        <lane id=":14_6_0" index="0" speed="9.02" length="5.28" shape="198.40,210.40 199.48,206.14 200.00,205.42"/>
    </edge>
    <edge id=":14_7" function="internal">
        <lane id=":14_7_0" index="0" speed="3.65" length="2.34" shape="198.40,210.40 199.20,209.20 200.00,208.80"/>
    </edge>
    <edge id=":14_32" function="internal">
        <lane id=":14_32_0" index="0" speed="10.10" length="15.74" shape="197.69,203.46 200.11,200.11 205.00,196.57 210.40,195.20"/>
    </edge>
    <edge id=":14_33" function="internal">
        <lane id=":14_33_0" index="0" speed="5.58" length="7.01" shape="200.00,205.60 202.40,206.80 204.80,210.40"/>
    </edge>
    <edge id=":14_34" function="internal">
        <lane id=":14_34_0" index="0" speed="8.00" length="8.26" shape="196.80,204.80 196.20,203.80 193.45,202.15 189.60,201.60"/>
    </edge>
    <edge id=":14_35" function="internal">
        <lane id=":14_35_0" index="0" speed="9.02" length="13.05" shape="200.00,205.42 202.28,202.28 206.14,199.48 210.40,198.40"/>
    </edge>
    <edge id=":14_36" function="internal">
        <lane id=":14_36_0" index="0" speed="3.65" length="2.34" shape="200.00,208.80 200.80,209.20 201.60,210.40"/>
    </edge>
    <edge id=":14_8" function="internal">
        <lane id=":14_8_0" index="0" speed="6.51" length="9.03" shape="210.40,204.80 207.95,205.15 206.20,206.20 205.15,207.95 204.80,210.40"/>
    </edge>
    <edge id=":14_9" function="internal">
        <lane id=":14_9_0" index="0" speed="13.89" length="20.80" shape="210.40,204.80 189.60,204.80"/>
    </edge>
    <edge id=":14_10" function="internal">
        <lane id=":14_10_0" index="0" speed="10.10" length="23.22" shape="210.40,204.80 205.00,203.43 200.11,199.89 196.57,195.00 195.20,189.60"/>
    </edge>
    <edge id=":14_11" function="internal">
        <lane id=":14_11_0" index="0" speed="5.58" length="14.02" shape="210.40,204.80 206.80,202.40 205.60,200.00 206.80,197.60 210.40,195.20"/>
    </edge>
    <edge id=":14_12" function="internal">
        <lane id=":14_12_0" index="0" speed="8.00" length="14.19" shape="210.40,201.60 206.55,202.15 203.80,203.80 202.15,206.55 201.60,210.40"/>
    </edge>
    <edge id=":14_13" function="internal">
        <lane id=":14_13_0" index="0" speed="13.89" length="20.80" shape="210.40,201.60 189.60,201.60"/>
    </edge>
    <edge id=":14_14" function="internal">
        <lane id=":14_14_0" index="0" speed="9.02" length="18.33" shape="210.40,201.60 206.14,200.52 202.28,197.72 199.48,193.86 198.40,189.60"/>
    </edge>
    <edge id=":14_15" function="internal">
        <lane id=":14_15_0" index="0" speed="3.65" length="4.67" shape="210.40,201.60 209.20,200.80 208.80,200.00 209.20,199.20 210.40,198.40"/>
    </edge>
    <edge id=":14_16" function="internal">
        <lane id=":14_16_0" index="0" speed="6.51" length="9.03" shape="204.80,189.60 205.15,192.05 206.20,193.80 207.95,194.85 210.40,195.20"/>
    </edge>
    <edge id=":14_17" function="internal">
        <lane id=":14_17_0" index="0" speed="13.89" length="20.80" shape="204.80,189.60 204.80,210.40"/>
    </edge>
    <edge id=":14_18" function="internal">
        <lane id=":14_18_0" index="0" speed="10.10" length="7.47" shape="204.80,189.60 203.43,195.00 202.31,196.54"/>
    </edge>
    <edge id=":14_19" function="internal">
        <lane id=":14_19_0" index="0" speed="5.58" length="7.01" shape="204.80,189.60 202.40,193.20 200.00,194.40"/>
    </edge>
    <edge id=":14_20" function="internal">
        <lane id=":14_20_0" index="0" speed="8.00" length="5.93" shape="201.60,189.60 202.15,193.45 203.20,195.20"/>
    </edge>
    <edge id=":14_21" function="internal">
        <lane id=":14_21_0" index="0" speed="13.89" length="20.80" shape="201.60,189.60 201.60,210.40"/>
    </edge>
    <edge id=":14_22" function="internal">