<routes>
  <vType id="car1" accel="1.0" decel="5.0" length="12.0" maxSpeed="10" sigma="0.0" lcOpposite="inf" />
</routes>
